MODEL 1
REMARK VINA RESULT:      -7.0      0.000      0.000
REMARK  Name = 
REMARK                            x       y       z     vdW  Elec       q    Type
REMARK                         _______ _______ _______ _____ _____    ______ ____
ROOT
ATOM     12  C   LIG    1       16.941  69.833  -8.615  0.00  0.00    +0.141 A 
ATOM     13  C   LIG    1       17.777  70.963  -8.776  0.00  0.00    +0.037 A 
ATOM     14  C   LIG    1       17.840  71.973  -7.808  0.00  0.00    +0.003 A 
ATOM     15  C   LIG    1       17.138  71.951  -6.672  0.00  0.00    +0.000 A 
ATOM     26  C   LIG    1       16.304  70.832  -6.535  0.00  0.00    +0.003 A 
ATOM     27  C   LIG    1       16.214  69.823  -7.463  0.00  0.00    +0.037 A 
ENDROOT
BRANCH  15  16
ATOM     16  C   LIG    1       17.061  72.826  -5.508  0.00  0.00    +0.000 C 
ATOM     17  C   LIG    1       17.904  72.694  -4.716  0.00  0.00    +0.000 C 
BRANCH  17  18
ATOM     18  C   LIG    1       19.026  72.067  -4.313  0.00  0.00    +0.006 A 
ATOM     19  C   LIG    1       20.116  72.942  -3.961  0.00  0.00    +0.042 A 
ATOM     20  C   LIG    1       21.311  72.573  -3.432  0.00  0.00    +0.199 A 
ATOM     21  O   LIG    1       22.296  73.501  -3.115  0.00  0.00    -0.286 OA
ATOM     22  C   LIG    1       21.538  71.252  -3.196  0.00  0.00    +0.084 A 
ATOM     23  C   LIG    1       20.529  70.295  -3.496  0.00  0.00    +0.199 A 
ATOM     24  O   LIG    1       20.827  68.979  -3.228  0.00  0.00    -0.286 OA
ATOM     25  C   LIG    1       19.351  70.768  -4.029  0.00  0.00    +0.042 A 
ENDBRANCH  17  18
ENDBRANCH  15  16
BRANCH  12  11
ATOM     11  O   LIG    1       16.872  68.786  -9.474  0.00  0.00    -0.450 OA
BRANCH  11  10
ATOM      3  C   LIG    1       17.284  67.540 -11.312  0.00  0.00    +0.185 C 
ATOM      4  C   LIG    1       18.111  66.036 -11.768  0.00  0.00    +0.215 C 
ATOM      5  O   LIG    1       19.373  66.764 -12.092  0.00  0.00    -0.218 OA
ATOM      6  C   LIG    1       18.602  65.688 -10.178  0.00  0.00    +0.221 C 
ATOM      7  O   LIG    1       17.391  65.053  -9.669  0.00  0.00    -0.217 OA
ATOM      8  C   LIG    1       18.652  67.197  -9.512  0.00  0.00    +0.254 C 
ATOM      9  O   LIG    1       19.029  66.671  -8.176  0.00  0.00    -0.213 OA
ATOM     10  C   LIG    1       16.893  67.349  -8.987  0.00  0.00    +0.322 C 
ATOM     28  O   LIG    1       16.465  66.751 -10.327  0.00  0.00    -0.316 OA
BRANCH   3   2
ATOM      1  O   LIG    1       15.705  68.622 -12.630  0.00  0.00    -0.218 OA
ATOM      2  C   LIG    1       16.121  67.305 -12.502  0.00  0.00    +0.214 C 
ENDBRANCH   3   2
ENDBRANCH  11  10
ENDBRANCH  12  11
TORSDOF 5
ENDMDL
MODEL 2
REMARK VINA RESULT:      -7.0     36.310     40.266
REMARK  Name = 
REMARK                            x       y       z     vdW  Elec       q    Type
REMARK                         _______ _______ _______ _____ _____    ______ ____
ROOT
ATOM     12  C   LIG    1        5.312  82.469  29.345  0.00  0.00    +0.141 A 
ATOM     13  C   LIG    1        5.556  83.861  29.272  0.00  0.00    +0.037 A 
ATOM     14  C   LIG    1        5.376  84.577  28.082  0.00  0.00    +0.003 A 
ATOM     15  C   LIG    1        4.960  84.018  26.942  0.00  0.00    +0.000 A 
ATOM     26  C   LIG    1        4.738  82.637  27.027  0.00  0.00    +0.003 A 
ATOM     27  C   LIG    1        4.904  81.901  28.175  0.00  0.00    +0.037 A 
ENDROOT
BRANCH  15  16
ATOM     16  C   LIG    1        4.652  84.533  25.613  0.00  0.00    +0.000 C 
ATOM     17  C   LIG    1        5.447  84.320  24.788  0.00  0.00    +0.000 C 
BRANCH  17  18
ATOM     18  C   LIG    1        6.625  83.774  24.429  0.00  0.00    +0.006 A 
ATOM     19  C   LIG    1        6.741  83.452  23.029  0.00  0.00    +0.042 A 
ATOM     20  C   LIG    1        7.851  82.992  22.395  0.00  0.00    +0.199 A 
ATOM     21  O   LIG    1        7.863  82.722  21.032  0.00  0.00    -0.286 OA
ATOM     22  C   LIG    1        8.985  82.804  23.123  0.00  0.00    +0.084 A 
ATOM     23  C   LIG    1        8.992  83.098  24.515  0.00  0.00    +0.199 A 
ATOM     24  O   LIG    1       10.174  82.888  25.185  0.00  0.00    -0.286 OA
ATOM     25  C   LIG    1        7.817  83.560  25.066  0.00  0.00    +0.042 A 
ENDBRANCH  17  18
ENDBRANCH  15  16
BRANCH  12  11
ATOM     11  O   LIG    1        5.402  81.720  30.472  0.00  0.00    -0.450 OA
BRANCH  11  10
ATOM      3  C   LIG    1        6.865  80.673  31.836  0.00  0.00    +0.185 C 
ATOM      4  C   LIG    1        6.904  79.338  33.007  0.00  0.00    +0.215 C 
ATOM      5  O   LIG    1        6.642  80.259  34.150  0.00  0.00    -0.218 OA
ATOM      6  C   LIG    1        5.259  78.958  32.804  0.00  0.00    +0.221 C 
ATOM      7  O   LIG    1        5.334  78.122  31.611  0.00  0.00    -0.217 OA
ATOM      8  C   LIG    1        4.645  80.410  32.318  0.00  0.00    +0.254 C 
ATOM      9  O   LIG    1        3.278  79.856  32.154  0.00  0.00    -0.213 OA
ATOM     10  C   LIG    1        4.949  80.272  30.507  0.00  0.00    +0.322 C 
ATOM     28  O   LIG    1        6.339  79.709  30.807  0.00  0.00    -0.316 OA
BRANCH   3   2
ATOM      1  O   LIG    1        8.281  80.545  29.997  0.00  0.00    -0.218 OA
ATOM      2  C   LIG    1        8.445  80.352  31.362  0.00  0.00    +0.214 C 
ENDBRANCH   3   2
ENDBRANCH  11  10
ENDBRANCH  12  11
TORSDOF 5
ENDMDL
MODEL 3
REMARK VINA RESULT:      -6.9     15.245     18.444
REMARK  Name = 
REMARK                            x       y       z     vdW  Elec       q    Type
REMARK                         _______ _______ _______ _____ _____    ______ ____
ROOT
ATOM     12  C   LIG    1       31.375  59.335  -8.449  0.00  0.00    +0.141 A 
ATOM     13  C   LIG    1       32.733  58.986  -8.267  0.00  0.00    +0.037 A 
ATOM     14  C   LIG    1       33.752  59.581  -9.022  0.00  0.00    +0.003 A 
ATOM     15  C   LIG    1       33.531  60.514  -9.953  0.00  0.00    +0.000 A 
ATOM     26  C   LIG    1       32.179  60.837 -10.131  0.00  0.00    +0.003 A 
ATOM     27  C   LIG    1       31.153  60.275  -9.411  0.00  0.00    +0.037 A 
ENDROOT
BRANCH  15  16
ATOM     16  C   LIG    1       34.394  61.306 -10.820  0.00  0.00    +0.000 C 
ATOM     17  C   LIG    1       34.704  60.806 -11.824  0.00  0.00    +0.000 C 
BRANCH  17  18
ATOM     18  C   LIG    1       34.646  59.748 -12.657  0.00  0.00    +0.006 A 
ATOM     19  C   LIG    1       35.921  59.159 -12.977  0.00  0.00    +0.042 A 
ATOM     20  C   LIG    1       36.131  58.032 -13.704  0.00  0.00    +0.199 A 
ATOM     21  O   LIG    1       37.407  57.537 -13.947  0.00  0.00    -0.286 OA
ATOM     22  C   LIG    1       35.052  57.364 -14.196  0.00  0.00    +0.084 A 
ATOM     23  C   LIG    1       33.740  57.849 -13.936  0.00  0.00    +0.199 A 
ATOM     24  O   LIG    1       32.698  57.121 -14.462  0.00  0.00    -0.286 OA
ATOM     25  C   LIG    1       33.631  58.999 -13.188  0.00  0.00    +0.042 A 
ENDBRANCH  17  18
ENDBRANCH  15  16
BRANCH  12  11
ATOM     11  O   LIG    1       30.340  58.852  -7.716  0.00  0.00    -0.450 OA
BRANCH  11  10
ATOM      3  C   LIG    1       28.535  57.518  -7.954  0.00  0.00    +0.185 C 
ATOM      4  C   LIG    1       26.934  57.266  -7.226  0.00  0.00    +0.215 C 
ATOM      5  O   LIG    1       27.461  56.230  -6.291  0.00  0.00    -0.218 OA
ATOM      6  C   LIG    1       27.122  58.524  -6.097  0.00  0.00    +0.221 C 
ATOM      7  O   LIG    1       26.742  59.667  -6.920  0.00  0.00    -0.217 OA
ATOM      8  C   LIG    1       28.764  58.585  -5.944  0.00  0.00    +0.254 C 
ATOM      9  O   LIG    1       28.704  59.731  -5.002  0.00  0.00    -0.213 OA
ATOM     10  C   LIG    1       29.152  59.718  -7.343  0.00  0.00    +0.322 C 
ATOM     28  O   LIG    1       28.154  58.951  -8.212  0.00  0.00    -0.316 OA
BRANCH   3   2
ATOM      1  O   LIG    1       29.169  56.701 -10.035  0.00  0.00    -0.218 OA
ATOM      2  C   LIG    1       27.957  57.069  -9.466  0.00  0.00    +0.214 C 
ENDBRANCH   3   2
ENDBRANCH  11  10
ENDBRANCH  12  11
TORSDOF 5
ENDMDL
MODEL 4
REMARK VINA RESULT:      -6.8     23.895     25.433
REMARK  Name = 
REMARK                            x       y       z     vdW  Elec       q    Type
REMARK                         _______ _______ _______ _____ _____    ______ ____
ROOT
ATOM     12  C   LIG    1        4.918  59.337   8.717  0.00  0.00    +0.141 A 
ATOM     13  C   LIG    1        3.598  58.835   8.636  0.00  0.00    +0.037 A 
ATOM     14  C   LIG    1        2.506  59.558   9.132  0.00  0.00    +0.003 A 
ATOM     15  C   LIG    1        2.617  60.760   9.706  0.00  0.00    +0.000 A 
ATOM     26  C   LIG    1        3.932  61.235   9.792  0.00  0.00    +0.003 A 
ATOM     27  C   LIG    1        5.028  60.555   9.318  0.00  0.00    +0.037 A 
ENDROOT
BRANCH  15  16
ATOM     16  C   LIG    1        1.661  61.719  10.246  0.00  0.00    +0.000 C 
ATOM     17  C   LIG    1        1.232  61.472  11.300  0.00  0.00    +0.000 C 
BRANCH  17  18
ATOM     18  C   LIG    1        1.188  60.653  12.369  0.00  0.00    +0.006 A 
ATOM     19  C   LIG    1        0.180  59.626  12.302  0.00  0.00    +0.042 A 
ATOM     20  C   LIG    1       -0.007  58.617  13.192  0.00  0.00    +0.199 A 
ATOM     21  O   LIG    1       -1.007  57.665  13.030  0.00  0.00    -0.286 OA
ATOM     22  C   LIG    1        0.824  58.535  14.267  0.00  0.00    +0.084 A 
ATOM     23  C   LIG    1        1.865  59.491  14.432  0.00  0.00    +0.199 A 
ATOM     24  O   LIG    1        2.668  59.344  15.539  0.00  0.00    -0.286 OA
ATOM     25  C   LIG    1        1.973  60.476  13.476  0.00  0.00    +0.042 A 
ENDBRANCH  17  18
ENDBRANCH  15  16
BRANCH  12  11
ATOM     11  O   LIG    1        6.016  58.728   8.204  0.00  0.00    -0.450 OA
BRANCH  11  10
ATOM      3  C   LIG    1        7.094  56.769   8.522  0.00  0.00    +0.185 C 
ATOM      4  C   LIG    1        8.724  56.082   8.365  0.00  0.00    +0.215 C 
ATOM      5  O   LIG    1        8.448  55.599   6.981  0.00  0.00    -0.218 OA
ATOM      6  C   LIG    1        9.412  57.541   7.827  0.00  0.00    +0.221 C 
ATOM      7  O   LIG    1        9.643  58.203   9.105  0.00  0.00    -0.217 OA
ATOM      8  C   LIG    1        8.108  58.286   7.144  0.00  0.00    +0.254 C 
ATOM      9  O   LIG    1        8.891  59.502   6.808  0.00  0.00    -0.213 OA
ATOM     10  C   LIG    1        7.419  59.109   8.641  0.00  0.00    +0.322 C 
ATOM     28  O   LIG    1        7.663  57.824   9.432  0.00  0.00    -0.316 OA
BRANCH   3   2
ATOM      1  O   LIG    1        6.601  56.773  10.793  0.00  0.00    -0.218 OA
ATOM      2  C   LIG    1        6.763  55.779   9.838  0.00  0.00    +0.214 C 
ENDBRANCH   3   2
ENDBRANCH  11  10
ENDBRANCH  12  11
TORSDOF 5
ENDMDL
MODEL 5
REMARK VINA RESULT:      -6.5     18.112     21.042
REMARK  Name = 
REMARK                            x       y       z     vdW  Elec       q    Type
REMARK                         _______ _______ _______ _____ _____    ______ ____
ROOT
ATOM     12  C   LIG    1       20.323  69.524  13.590  0.00  0.00    +0.141 A 
ATOM     13  C   LIG    1       21.462  69.088  14.307  0.00  0.00    +0.037 A 
ATOM     14  C   LIG    1       22.179  69.953  15.143  0.00  0.00    +0.003 A 
ATOM     15  C   LIG    1       21.851  71.235  15.333  0.00  0.00    +0.000 A 
ATOM     26  C   LIG    1       20.731  71.655  14.603  0.00  0.00    +0.003 A 
ATOM     27  C   LIG    1       20.002  70.836  13.775  0.00  0.00    +0.037 A 
ENDROOT
BRANCH  15  16
ATOM     16  C   LIG    1       22.386  72.306  16.164  0.00  0.00    +0.000 C 
ATOM     17  C   LIG    1       23.143  73.023  15.645  0.00  0.00    +0.000 C 
BRANCH  17  18
ATOM     18  C   LIG    1       23.830  73.380  14.542  0.00  0.00    +0.006 A 
ATOM     19  C   LIG    1       23.205  74.405  13.745  0.00  0.00    +0.042 A 
ATOM     20  C   LIG    1       23.732  75.011  12.650  0.00  0.00    +0.199 A 
ATOM     21  O   LIG    1       23.049  76.003  11.955  0.00  0.00    -0.286 OA
ATOM     22  C   LIG    1       24.973  74.639  12.234  0.00  0.00    +0.084 A 
ATOM     23  C   LIG    1       25.691  73.641  12.950  0.00  0.00    +0.199 A 
ATOM     24  O   LIG    1       26.940  73.318  12.474  0.00  0.00    -0.286 OA
ATOM     25  C   LIG    1       25.072  73.086  14.047  0.00  0.00    +0.042 A 
ENDBRANCH  17  18
ENDBRANCH  15  16
BRANCH  12  11
ATOM     11  O   LIG    1       19.541  68.733  12.814  0.00  0.00    -0.450 OA
BRANCH  11  10
ATOM      3  C   LIG    1       18.031  67.209  12.111  0.00  0.00    +0.185 C 
ATOM      4  C   LIG    1       16.762  67.030  10.882  0.00  0.00    +0.215 C 
ATOM      5  O   LIG    1       15.706  67.504  11.823  0.00  0.00    -0.218 OA
ATOM      6  C   LIG    1       17.016  68.579  10.228  0.00  0.00    +0.221 C 
ATOM      7  O   LIG    1       18.137  68.301   9.337  0.00  0.00    -0.217 OA
ATOM      8  C   LIG    1       17.640  69.385  11.525  0.00  0.00    +0.254 C 
ATOM      9  O   LIG    1       17.829  70.635  10.748  0.00  0.00    -0.213 OA
ATOM     10  C   LIG    1       19.418  68.953  11.317  0.00  0.00    +0.322 C 
ATOM     28  O   LIG    1       19.009  67.512  11.008  0.00  0.00    -0.316 OA
BRANCH   3   2
ATOM      1  O   LIG    1       18.347  65.285  13.376  0.00  0.00    -0.218 OA
ATOM      2  C   LIG    1       18.401  65.573  12.020  0.00  0.00    +0.214 C 
ENDBRANCH   3   2
ENDBRANCH  11  10
ENDBRANCH  12  11
TORSDOF 5
ENDMDL
MODEL 6
REMARK VINA RESULT:      -6.5     24.378     25.828
REMARK  Name = 
REMARK                            x       y       z     vdW  Elec       q    Type
REMARK                         _______ _______ _______ _____ _____    ______ ____
ROOT
ATOM     12  C   LIG    1        4.135  60.029   9.072  0.00  0.00    +0.141 A 
ATOM     13  C   LIG    1        4.257  61.293   9.696  0.00  0.00    +0.037 A 
ATOM     14  C   LIG    1        3.142  61.968  10.211  0.00  0.00    +0.003 A 
ATOM     15  C   LIG    1        1.899  61.481  10.163  0.00  0.00    +0.000 A 
ATOM     26  C   LIG    1        1.794  60.236   9.529  0.00  0.00    +0.003 A 
ATOM     27  C   LIG    1        2.863  59.545   9.012  0.00  0.00    +0.037 A 
ENDROOT
BRANCH  15  16
ATOM     16  C   LIG    1        0.608  61.946  10.655  0.00  0.00    +0.000 C 
ATOM     17  C   LIG    1        0.213  61.425  11.619  0.00  0.00    +0.000 C 
BRANCH  17  18
ATOM     18  C   LIG    1        0.387  60.515  12.597  0.00  0.00    +0.006 A 
ATOM     19  C   LIG    1       -0.809  59.815  12.992  0.00  0.00    +0.042 A 
ATOM     20  C   LIG    1       -0.889  58.786  13.875  0.00  0.00    +0.199 A 
ATOM     21  O   LIG    1       -2.096  58.168  14.180  0.00  0.00    -0.286 OA
ATOM     22  C   LIG    1        0.255  58.344  14.465  0.00  0.00    +0.084 A 
ATOM     23  C   LIG    1        1.499  58.954  14.144  0.00  0.00    +0.199 A 
ATOM     24  O   LIG    1        2.614  58.453  14.775  0.00  0.00    -0.286 OA
ATOM     25  C   LIG    1        1.477  59.990  13.237  0.00  0.00    +0.042 A 
ENDBRANCH  17  18
ENDBRANCH  15  16
BRANCH  12  11
ATOM     11  O   LIG    1        5.171  59.287   8.608  0.00  0.00    -0.450 OA
BRANCH  11  10
ATOM      3  C   LIG    1        7.224  58.640   7.926  0.00  0.00    +0.185 C 
ATOM      4  C   LIG    1        8.391  57.331   8.205  0.00  0.00    +0.215 C 
ATOM      5  O   LIG    1        9.092  58.108   9.269  0.00  0.00    -0.218 OA
ATOM      6  C   LIG    1        7.391  56.520   9.315  0.00  0.00    +0.221 C 
ATOM      7  O   LIG    1        6.538  55.775   8.395  0.00  0.00    -0.217 OA
ATOM      8  C   LIG    1        6.475  57.761   9.900  0.00  0.00    +0.254 C 
ATOM      9  O   LIG    1        5.677  56.858  10.765  0.00  0.00    -0.213 OA
ATOM     10  C   LIG    1        5.140  57.770   8.630  0.00  0.00    +0.322 C 
ATOM     28  O   LIG    1        6.204  57.602   7.544  0.00  0.00    -0.316 OA
BRANCH   3   2
ATOM      1  O   LIG    1        7.268  60.078   6.101  0.00  0.00    -0.218 OA
ATOM      2  C   LIG    1        7.711  58.783   6.324  0.00  0.00    +0.214 C 
ENDBRANCH   3   2
ENDBRANCH  11  10
ENDBRANCH  12  11
TORSDOF 5
ENDMDL
MODEL 7
REMARK VINA RESULT:      -6.4     15.188     18.444
REMARK  Name = 
REMARK                            x       y       z     vdW  Elec       q    Type
REMARK                         _______ _______ _______ _____ _____    ______ ____
ROOT
ATOM     12  C   LIG    1       30.778  59.399  -8.714  0.00  0.00    +0.141 A 
ATOM     13  C   LIG    1       32.080  58.890  -8.492  0.00  0.00    +0.037 A 
ATOM     14  C   LIG    1       33.203  59.450  -9.113  0.00  0.00    +0.003 A 
ATOM     15  C   LIG    1       33.142  60.494  -9.945  0.00  0.00    +0.000 A 
ATOM     26  C   LIG    1       31.844  60.976 -10.166  0.00  0.00    +0.003 A 
ATOM     27  C   LIG    1       30.719  60.452  -9.576  0.00  0.00    +0.037 A 
ENDROOT
BRANCH  15  16
ATOM     16  C   LIG    1       34.138  61.278 -10.665  0.00  0.00    +0.000 C 
ATOM     17  C   LIG    1       34.546  60.804 -11.647  0.00  0.00    +0.000 C 
BRANCH  17  18
ATOM     18  C   LIG    1       34.542  59.786 -12.529  0.00  0.00    +0.006 A 
ATOM     19  C   LIG    1       35.841  59.237 -12.825  0.00  0.00    +0.042 A 
ATOM     20  C   LIG    1       36.103  58.149 -13.594  0.00  0.00    +0.199 A 
ATOM     21  O   LIG    1       37.399  57.691 -13.809  0.00  0.00    -0.286 OA
ATOM     22  C   LIG    1       35.059  57.485 -14.159  0.00  0.00    +0.084 A 
ATOM     23  C   LIG    1       33.727  57.931 -13.929  0.00  0.00    +0.199 A 
ATOM     24  O   LIG    1       32.722  57.209 -14.529  0.00  0.00    -0.286 OA
ATOM     25  C   LIG    1       33.565  59.043 -13.134  0.00  0.00    +0.042 A 
ENDBRANCH  17  18
ENDBRANCH  15  16
BRANCH  12  11
ATOM     11  O   LIG    1       29.652  58.953  -8.103  0.00  0.00    -0.450 OA
BRANCH  11  10
ATOM      3  C   LIG    1       28.188  58.868  -6.386  0.00  0.00    +0.185 C 
ATOM      4  C   LIG    1       26.844  57.864  -5.804  0.00  0.00    +0.215 C 
ATOM      5  O   LIG    1       25.835  58.714  -6.500  0.00  0.00    -0.218 OA
ATOM      6  C   LIG    1       26.956  56.763  -7.095  0.00  0.00    +0.221 C 
ATOM      7  O   LIG    1       28.022  55.898  -6.603  0.00  0.00    -0.217 OA
ATOM      8  C   LIG    1       27.625  57.705  -8.273  0.00  0.00    +0.254 C 
ATOM      9  O   LIG    1       27.681  56.580  -9.239  0.00  0.00    -0.213 OA
ATOM     10  C   LIG    1       29.406  57.475  -7.861  0.00  0.00    +0.322 C 
ATOM     28  O   LIG    1       29.061  57.642  -6.380  0.00  0.00    -0.316 OA
BRANCH   3   2
ATOM      1  O   LIG    1       30.018  59.295  -5.019  0.00  0.00    -0.218 OA
ATOM      2  C   LIG    1       28.648  59.230  -4.811  0.00  0.00    +0.214 C 
ENDBRANCH   3   2
ENDBRANCH  11  10
ENDBRANCH  12  11
TORSDOF 5
ENDMDL
MODEL 8
REMARK VINA RESULT:      -6.4     23.834     25.255
REMARK  Name = 
REMARK                            x       y       z     vdW  Elec       q    Type
REMARK                         _______ _______ _______ _____ _____    ______ ____
ROOT
ATOM     12  C   LIG    1        4.912  59.501   9.035  0.00  0.00    +0.141 A 
ATOM     13  C   LIG    1        4.928  60.869   9.395  0.00  0.00    +0.037 A 
ATOM     14  C   LIG    1        3.759  61.544   9.770  0.00  0.00    +0.003 A 
ATOM     15  C   LIG    1        2.557  60.961   9.825  0.00  0.00    +0.000 A 
ATOM     26  C   LIG    1        2.557  59.611   9.451  0.00  0.00    +0.003 A 
ATOM     27  C   LIG    1        3.682  58.917   9.077  0.00  0.00    +0.037 A 
ENDROOT
BRANCH  15  16
ATOM     16  C   LIG    1        1.229  61.412  10.221  0.00  0.00    +0.000 C 
ATOM     17  C   LIG    1        0.770  60.889  11.155  0.00  0.00    +0.000 C 
BRANCH  17  18
ATOM     18  C   LIG    1        0.884  59.983  12.146  0.00  0.00    +0.006 A 
ATOM     19  C   LIG    1        1.772  60.364  13.215  0.00  0.00    +0.042 A 
ATOM     20  C   LIG    1        1.984  59.684  14.371  0.00  0.00    +0.199 A 
ATOM     21  O   LIG    1        2.858  60.145  15.349  0.00  0.00    -0.286 OA
ATOM     22  C   LIG    1        1.305  58.522  14.576  0.00  0.00    +0.084 A 
ATOM     23  C   LIG    1        0.391  58.052  13.593  0.00  0.00    +0.199 A 
ATOM     24  O   LIG    1       -0.262  56.873  13.870  0.00  0.00    -0.286 OA
ATOM     25  C   LIG    1        0.246  58.812  12.454  0.00  0.00    +0.042 A 
ENDBRANCH  17  18
ENDBRANCH  15  16
BRANCH  12  11
ATOM     11  O   LIG    1        6.007  58.765   8.723  0.00  0.00    -0.450 OA
BRANCH  11  10
ATOM      3  C   LIG    1        8.199  58.396   8.326  0.00  0.00    +0.185 C 
ATOM      4  C   LIG    1        9.263  57.123   7.692  0.00  0.00    +0.215 C 
ATOM      5  O   LIG    1        9.514  56.576   9.057  0.00  0.00    -0.218 OA
ATOM      6  C   LIG    1        7.983  56.046   7.386  0.00  0.00    +0.221 C 
ATOM      7  O   LIG    1        7.537  56.539   6.087  0.00  0.00    -0.217 OA
ATOM      8  C   LIG    1        6.861  56.549   8.485  0.00  0.00    +0.254 C 
ATOM      9  O   LIG    1        5.860  55.555   8.023  0.00  0.00    -0.213 OA
ATOM     10  C   LIG    1        6.047  57.872   7.496  0.00  0.00    +0.322 C 
ATOM     28  O   LIG    1        7.426  58.345   7.036  0.00  0.00    -0.316 OA
BRANCH   3   2
ATOM      1  O   LIG    1        8.641  60.677   8.365  0.00  0.00    -0.218 OA
ATOM      2  C   LIG    1        9.200  59.593   7.704  0.00  0.00    +0.214 C 
ENDBRANCH   3   2
ENDBRANCH  11  10
ENDBRANCH  12  11
TORSDOF 5
ENDMDL
MODEL 9
REMARK VINA RESULT:      -6.4     14.146     16.441
REMARK  Name = 
REMARK                            x       y       z     vdW  Elec       q    Type
REMARK                         _______ _______ _______ _____ _____    ______ ____
ROOT
ATOM     12  C   LIG    1       30.297  80.560 -11.614  0.00  0.00    +0.141 A 
ATOM     13  C   LIG    1       31.076  79.602 -12.304  0.00  0.00    +0.037 A 
ATOM     14  C   LIG    1       32.355  79.240 -11.863  0.00  0.00    +0.003 A 
ATOM     15  C   LIG    1       32.931  79.753 -10.772  0.00  0.00    +0.000 A 
ATOM     26  C   LIG    1       32.152  80.711 -10.109  0.00  0.00    +0.003 A 
ATOM     27  C   LIG    1       30.895  81.092 -10.512  0.00  0.00    +0.037 A 
ENDROOT
BRANCH  15  16
ATOM     16  C   LIG    1       34.196  79.518 -10.086  0.00  0.00    +0.000 C 
ATOM     17  C   LIG    1       34.222  78.605  -9.365  0.00  0.00    +0.000 C 
BRANCH  17  18
ATOM     18  C   LIG    1       33.590  77.555  -8.803  0.00  0.00    +0.006 A 
ATOM     19  C   LIG    1       32.781  77.880  -7.656  0.00  0.00    +0.042 A 
ATOM     20  C   LIG    1       31.968  77.032  -6.974  0.00  0.00    +0.199 A 
ATOM     21  O   LIG    1       31.215  77.449  -5.883  0.00  0.00    -0.286 OA
ATOM     22  C   LIG    1       31.883  75.738  -7.388  0.00  0.00    +0.084 A 
ATOM     23  C   LIG    1       32.632  75.305  -8.518  0.00  0.00    +0.199 A 
ATOM     24  O   LIG    1       32.494  73.985  -8.880  0.00  0.00    -0.286 OA
ATOM     25  C   LIG    1       33.427  76.239  -9.142  0.00  0.00    +0.042 A 
ENDBRANCH  17  18
ENDBRANCH  15  16
BRANCH  12  11
ATOM     11  O   LIG    1       29.029  80.915 -11.941  0.00  0.00    -0.450 OA
BRANCH  11  10
ATOM      3  C   LIG    1       26.980  81.079 -11.007  0.00  0.00    +0.185 C 
ATOM      4  C   LIG    1       25.270  81.044 -11.485  0.00  0.00    +0.215 C 
ATOM      5  O   LIG    1       25.222  82.528 -11.626  0.00  0.00    -0.218 OA
ATOM      6  C   LIG    1       25.615  80.797 -13.131  0.00  0.00    +0.221 C 
ATOM      7  O   LIG    1       25.810  79.351 -13.139  0.00  0.00    -0.217 OA
ATOM      8  C   LIG    1       27.116  81.470 -13.256  0.00  0.00    +0.254 C 
ATOM      9  O   LIG    1       27.236  81.109 -14.691  0.00  0.00    -0.213 OA
ATOM     10  C   LIG    1       28.136  80.014 -12.775  0.00  0.00    +0.322 C 
ATOM     28  O   LIG    1       27.150  79.726 -11.643  0.00  0.00    -0.316 OA
BRANCH   3   2
ATOM      1  O   LIG    1       27.749  80.776  -8.835  0.00  0.00    -0.218 OA
ATOM      2  C   LIG    1       26.620  80.365  -9.530  0.00  0.00    +0.214 C 
ENDBRANCH   3   2
ENDBRANCH  11  10
ENDBRANCH  12  11
TORSDOF 5
ENDMDL
MODEL 10
REMARK VINA RESULT:      -6.2     25.612     30.618
REMARK  Name = 
REMARK                            x       y       z     vdW  Elec       q    Type
REMARK                         _______ _______ _______ _____ _____    ______ ____
ROOT
ATOM     12  C   LIG    1        7.682  44.532 -15.430  0.00  0.00    +0.141 A 
ATOM     13  C   LIG    1        8.921  44.057 -15.922  0.00  0.00    +0.037 A 
ATOM     14  C   LIG    1        9.000  43.288 -17.090  0.00  0.00    +0.003 A 
ATOM     15  C   LIG    1        7.936  42.953 -17.825  0.00  0.00    +0.000 A 
ATOM     26  C   LIG    1        6.716  43.418 -17.316  0.00  0.00    +0.003 A 
ATOM     27  C   LIG    1        6.599  44.173 -16.174  0.00  0.00    +0.037 A 
ENDROOT
BRANCH  15  16
ATOM     16  C   LIG    1        7.755  42.224 -19.075  0.00  0.00    +0.000 C 
ATOM     17  C   LIG    1        7.573  41.078 -18.974  0.00  0.00    +0.000 C 
BRANCH  17  18
ATOM     18  C   LIG    1        7.433  39.993 -18.188  0.00  0.00    +0.006 A 
ATOM     19  C   LIG    1        8.150  38.826 -18.633  0.00  0.00    +0.042 A 
ATOM     20  C   LIG    1        8.259  37.643 -17.974  0.00  0.00    +0.199 A 
ATOM     21  O   LIG    1        8.988  36.576 -18.487  0.00  0.00    -0.286 OA
ATOM     22  C   LIG    1        7.641  37.511 -16.769  0.00  0.00    +0.084 A 
ATOM     23  C   LIG    1        6.910  38.603 -16.223  0.00  0.00    +0.199 A 
ATOM     24  O   LIG    1        6.316  38.398 -15.000  0.00  0.00    -0.286 OA
ATOM     25  C   LIG    1        6.859  39.760 -16.967  0.00  0.00    +0.042 A 
ENDBRANCH  17  18
ENDBRANCH  15  16
BRANCH  12  11
ATOM     11  O   LIG    1        7.530  45.332 -14.345  0.00  0.00    -0.450 OA
BRANCH  11  10
ATOM      3  C   LIG    1        6.069  45.864 -12.708  0.00  0.00    +0.185 C 
ATOM      4  C   LIG    1        5.692  47.214 -11.617  0.00  0.00    +0.215 C 
ATOM      5  O   LIG    1        6.556  46.655 -10.537  0.00  0.00    -0.218 OA
ATOM      6  C   LIG    1        6.929  48.206 -12.232  0.00  0.00    +0.221 C 
ATOM      7  O   LIG    1        6.258  48.758 -13.403  0.00  0.00    -0.217 OA
ATOM      8  C   LIG    1        8.001  47.084 -12.794  0.00  0.00    +0.254 C 
ATOM      9  O   LIG    1        8.926  48.124 -13.310  0.00  0.00    -0.213 OA
ATOM     10  C   LIG    1        7.305  46.827 -14.480  0.00  0.00    +0.322 C 
ATOM     28  O   LIG    1        5.902  46.802 -13.872  0.00  0.00    -0.316 OA
BRANCH   3   2
ATOM      1  O   LIG    1        4.609  44.180 -13.367  0.00  0.00    -0.218 OA
ATOM      2  C   LIG    1        4.447  45.433 -12.794  0.00  0.00    +0.214 C 
ENDBRANCH   3   2
ENDBRANCH  11  10
ENDBRANCH  12  11
TORSDOF 5
ENDMDL
