REMARK  Name = 
REMARK                            x       y       z     vdW  Elec       q    Type
REMARK                         _______ _______ _______ _____ _____    ______ ____
ROOT
ATOM     12  C   LIG    1       -1.159  -1.107  -0.126  0.00  0.00    +0.141 A 
ATOM     13  C   LIG    1       -0.052  -0.730   0.670  0.00  0.00    +0.037 A 
ATOM     14  C   LIG    1        1.243  -1.183   0.388  0.00  0.00    +0.003 A 
ATOM     15  C   LIG    1        1.536  -1.986  -0.639  0.00  0.00    +0.000 A 
ATOM     26  C   LIG    1        0.426  -2.362  -1.408  0.00  0.00    +0.003 A 
ATOM     27  C   LIG    1       -0.858  -1.939  -1.162  0.00  0.00    +0.037 A 
ENDROOT
BRANCH  15  16
ATOM     16  C   LIG    1        2.773  -2.547  -1.168  0.00  0.00    +0.000 C 
ATOM     17  C   LIG    1        3.744  -1.947  -0.937  0.00  0.00    +0.000 C 
BRANCH  17  18
ATOM     18  C   LIG    1        4.338  -0.884  -0.360  0.00  0.00    +0.006 A 
ATOM     19  C   LIG    1        5.660  -0.589  -0.852  0.00  0.00    +0.042 A 
ATOM     20  C   LIG    1        6.428   0.479  -0.515  0.00  0.00    +0.199 A 
ATOM     21  O   LIG    1        7.692   0.680  -1.058  0.00  0.00    -0.286 OA
ATOM     22  C   LIG    1        5.932   1.383   0.373  0.00  0.00    +0.084 A 
ATOM     23  C   LIG    1        4.631   1.200   0.919  0.00  0.00    +0.199 A 
ATOM     24  O   LIG    1        4.194   2.155   1.807  0.00  0.00    -0.286 OA
ATOM     25  C   LIG    1        3.930   0.086   0.515  0.00  0.00    +0.042 A 
ENDBRANCH  17  18
ENDBRANCH  15  16
BRANCH  12  11
ATOM     11  O   LIG    1       -2.429  -0.661   0.044  0.00  0.00    -0.450 OA
BRANCH  11  10
ATOM      3  C   LIG    1       -3.862   0.997  -0.499  0.00  0.00    +0.185 C 
ATOM      4  C   LIG    1       -5.342   1.761   0.118  0.00  0.00    +0.215 C 
ATOM      5  O   LIG    1       -6.211   0.868  -0.702  0.00  0.00    -0.218 OA
ATOM      6  C   LIG    1       -5.428   0.756   1.487  0.00  0.00    +0.221 C 
ATOM      7  O   LIG    1       -4.508   1.455   2.377  0.00  0.00    -0.217 OA
ATOM      8  C   LIG    1       -4.633  -0.589   0.957  0.00  0.00    +0.254 C 
ATOM      9  O   LIG    1       -4.774  -1.274   2.266  0.00  0.00    -0.213 OA
ATOM     10  C   LIG    1       -2.907  -0.096   1.369  0.00  0.00    +0.322 C 
ATOM     28  O   LIG    1       -3.198   1.300   0.817  0.00  0.00    -0.316 OA
BRANCH   3   2
ATOM      1  O   LIG    1       -3.838   2.315  -2.413  0.00  0.00    -0.218 OA
ATOM      2  C   LIG    1       -3.327   2.459  -1.131  0.00  0.00    +0.214 C 
ENDBRANCH   3   2
ENDBRANCH  11  10
ENDBRANCH  12  11
TORSDOF 5
