REMARK  Name = 
REMARK                            x       y       z     vdW  Elec       q    Type
REMARK                         _______ _______ _______ _____ _____    ______ ____
ROOT
ATOM     12  C   LIG    1        0.324   0.242   0.000  0.00  0.00    +0.141 A 
ATOM     13  C   LIG    1        0.670  -1.217   0.000  0.00  0.00    +0.037 A 
ATOM     14  C   LIG    1       -0.420  -2.247   0.000  0.00  0.00    +0.003 A 
ATOM     15  C   LIG    1       -1.858  -1.817   0.000  0.00  0.00    +0.000 A 
ATOM     26  C   LIG    1       -2.204  -0.358   0.000  0.00  0.00    +0.003 A 
ATOM     27  C   LIG    1       -1.113   0.672   0.000  0.00  0.00    +0.037 A 
ENDROOT
BRANCH  15  16
ATOM     16  C   LIG    1       -2.948  -2.847   0.000  0.00  0.00    +0.000 C 
ATOM     17  C   LIG    1       -4.385  -2.417   0.000  0.00  0.00    +0.000 C 
BRANCH  17  18
ATOM     18  C   LIG    1       -4.732  -0.958   0.000  0.00  0.00    +0.006 A 
ATOM     19  C   LIG    1       -6.169  -0.528   0.000  0.00  0.00    +0.042 A 
ATOM     20  C   LIG    1       -6.515   0.932   0.000  0.00  0.00    +0.199 A 
ATOM     21  O   LIG    1       -7.952   1.361   0.000  0.00  0.00    -0.286 OA
ATOM     22  C   LIG    1       -5.424   1.961   0.000  0.00  0.00    +0.084 A 
ATOM     23  C   LIG    1       -3.987   1.532   0.000  0.00  0.00    +0.199 A 
ATOM     24  O   LIG    1       -2.897   2.561   0.000  0.00  0.00    -0.286 OA
ATOM     25  C   LIG    1       -3.641   0.072   0.000  0.00  0.00    +0.042 A 
ENDBRANCH  17  18
ENDBRANCH  15  16
BRANCH  12  11
ATOM     11  O   LIG    1        1.415   1.272   0.000  0.00  0.00    -0.450 OA
BRANCH  11  10
ATOM      3  C   LIG    1        4.635  -1.047   0.000  0.00  0.00    +0.185 C 
ATOM      4  C   LIG    1        5.726  -0.018   0.000  0.00  0.00    +0.215 C 
ATOM      5  O   LIG    1        7.163  -0.448   0.000  0.00  0.00    -0.218 OA
ATOM      6  C   LIG    1        5.380   1.442   0.000  0.00  0.00    +0.221 C 
ATOM      7  O   LIG    1        6.471   2.471   0.000  0.00  0.00    -0.217 OA
ATOM      8  C   LIG    1        3.943   1.871   0.000  0.00  0.00    +0.254 C 
ATOM      9  O   LIG    1        3.596   3.331   0.000  0.00  0.00    -0.213 OA
ATOM     10  C   LIG    1        2.852   0.842   0.000  0.00  0.00    +0.322 C 
ATOM     28  O   LIG    1        3.198  -0.618   0.000  0.00  0.00    -0.316 OA
BRANCH   3   2
ATOM      1  O   LIG    1        3.891  -3.537   0.000  0.00  0.00    -0.218 OA
ATOM      2  C   LIG    1        4.982  -2.507   0.000  0.00  0.00    +0.214 C 
ENDBRANCH   3   2
ENDBRANCH  11  10
ENDBRANCH  12  11
TORSDOF 5
