REMARK  Name = 
REMARK                            x       y       z     vdW  Elec       q    Type
REMARK                         _______ _______ _______ _____ _____    ______ ____
ROOT
ATOM      6  C   LIG    1        0.612   0.269  -0.188  0.00  0.00    +0.000 C 
ATOM      7  C   LIG    1       -0.316  -0.567   0.179  0.00  0.00    +0.000 C 
ENDROOT
BRANCH   7   8
ATOM      8  C   LIG    1       -1.736  -0.259  -0.032  0.00  0.00    +0.006 A 
ATOM      9  C   LIG    1       -2.734  -1.128   0.348  0.00  0.00    +0.042 A 
ATOM     10  C   LIG    1       -4.068  -0.774   0.118  0.00  0.00    +0.199 A 
ATOM     11  O   LIG    1       -5.064  -1.647   0.500  0.00  0.00    -0.286 OA
ATOM     12  C   LIG    1       -4.381   0.436  -0.485  0.00  0.00    +0.084 A 
ATOM     13  C   LIG    1       -3.394   1.307  -0.866  0.00  0.00    +0.199 A 
ATOM     14  O   LIG    1       -3.635   2.528  -1.471  0.00  0.00    -0.286 OA
ATOM     15  C   LIG    1       -2.084   0.920  -0.622  0.00  0.00    +0.042 A 
ENDBRANCH   7   8
BRANCH   6   5
ATOM      1  O   LIG    1        6.206  -0.420   0.388  0.00  0.00    -0.287 OA
ATOM      2  C   LIG    1        4.825  -0.269   0.255  0.00  0.00    +0.196 A 
ATOM      3  C   LIG    1        4.295   0.867  -0.321  0.00  0.00    +0.042 A 
ATOM      4  C   LIG    1        2.928   1.009  -0.449  0.00  0.00    +0.003 A 
ATOM      5  C   LIG    1        2.038   0.047  -0.019  0.00  0.00    +0.000 A 
ATOM     16  C   LIG    1        2.572  -1.087   0.556  0.00  0.00    +0.003 A 
ATOM     17  C   LIG    1        3.938  -1.232   0.686  0.00  0.00    +0.042 A 
ENDBRANCH   6   5
TORSDOF 2
