MODEL 1
REMARK VINA RESULT:      -5.9      0.000      0.000
REMARK  Name = 
REMARK                            x       y       z     vdW  Elec       q    Type
REMARK                         _______ _______ _______ _____ _____    ______ ____
ROOT
ATOM      6  C   LIG    1       20.388  70.223  13.901  0.00  0.00    +0.000 C 
ATOM      7  C   LIG    1       20.554  71.502  14.076  0.00  0.00    +0.000 C 
ENDROOT
BRANCH   7   8
ATOM      8  C   LIG    1       21.684  72.015  14.862  0.00  0.00    +0.006 A 
ATOM      9  C   LIG    1       22.537  72.976  14.369  0.00  0.00    +0.042 A 
ATOM     10  C   LIG    1       23.595  73.422  15.169  0.00  0.00    +0.199 A 
ATOM     11  O   LIG    1       24.447  74.385  14.671  0.00  0.00    -0.286 OA
ATOM     12  C   LIG    1       23.781  72.903  16.442  0.00  0.00    +0.084 A 
ATOM     13  C   LIG    1       22.936  71.947  16.941  0.00  0.00    +0.199 A 
ATOM     14  O   LIG    1       23.063  71.387  18.201  0.00  0.00    -0.286 OA
ATOM     15  C   LIG    1       21.900  71.530  16.118  0.00  0.00    +0.042 A 
ENDBRANCH   7   8
BRANCH   6   5
ATOM      1  O   LIG    1       16.177  68.045  10.798  0.00  0.00    -0.287 OA
ATOM      2  C   LIG    1       17.211  68.567  11.576  0.00  0.00    +0.196 A 
ATOM      3  C   LIG    1       17.888  69.700  11.177  0.00  0.00    +0.042 A 
ATOM      4  C   LIG    1       18.910  70.210  11.952  0.00  0.00    +0.003 A 
ATOM      5  C   LIG    1       19.302  69.628  13.140  0.00  0.00    +0.000 A 
ATOM     16  C   LIG    1       18.623  68.495  13.535  0.00  0.00    +0.003 A 
ATOM     17  C   LIG    1       17.601  67.983  12.763  0.00  0.00    +0.042 A 
ENDBRANCH   6   5
TORSDOF 2
ENDMDL
MODEL 2
REMARK VINA RESULT:      -5.9      0.136      2.023
REMARK  Name = 
REMARK                            x       y       z     vdW  Elec       q    Type
REMARK                         _______ _______ _______ _____ _____    ______ ____
ROOT
ATOM      6  C   LIG    1       20.306  70.116  13.894  0.00  0.00    +0.000 C 
ATOM      7  C   LIG    1       20.511  71.391  14.059  0.00  0.00    +0.000 C 
ENDROOT
BRANCH   7   8
ATOM      8  C   LIG    1       21.622  71.876  14.889  0.00  0.00    +0.006 A 
ATOM      9  C   LIG    1       21.847  71.392  16.159  0.00  0.00    +0.042 A 
ATOM     10  C   LIG    1       22.923  71.897  16.897  0.00  0.00    +0.199 A 
ATOM     11  O   LIG    1       23.145  71.410  18.168  0.00  0.00    -0.286 OA
ATOM     12  C   LIG    1       23.751  72.871  16.358  0.00  0.00    +0.084 A 
ATOM     13  C   LIG    1       23.535  73.357  15.095  0.00  0.00    +0.199 A 
ATOM     14  O   LIG    1       24.321  74.326  14.498  0.00  0.00    -0.286 OA
ATOM     15  C   LIG    1       22.458  72.833  14.395  0.00  0.00    +0.042 A 
ENDBRANCH   7   8
BRANCH   6   5
ATOM      1  O   LIG    1       16.162  68.046  10.632  0.00  0.00    -0.287 OA
ATOM      2  C   LIG    1       17.179  68.541  11.449  0.00  0.00    +0.196 A 
ATOM      3  C   LIG    1       17.902  69.655  11.075  0.00  0.00    +0.042 A 
ATOM      4  C   LIG    1       18.906  70.138  11.889  0.00  0.00    +0.003 A 
ATOM      5  C   LIG    1       19.235  69.549  13.092  0.00  0.00    +0.000 A 
ATOM     16  C   LIG    1       18.510  68.436  13.463  0.00  0.00    +0.003 A 
ATOM     17  C   LIG    1       17.506  67.950  12.651  0.00  0.00    +0.042 A 
ENDBRANCH   6   5
TORSDOF 2
ENDMDL
MODEL 3
REMARK VINA RESULT:      -5.8     28.273     29.940
REMARK  Name = 
REMARK                            x       y       z     vdW  Elec       q    Type
REMARK                         _______ _______ _______ _____ _____    ______ ____
ROOT
ATOM      6  C   LIG    1       30.724  79.788 -11.915  0.00  0.00    +0.000 C 
ATOM      7  C   LIG    1       29.653  79.184 -12.344  0.00  0.00    +0.000 C 
ENDROOT
BRANCH   7   8
ATOM      8  C   LIG    1       28.323  79.772 -12.141  0.00  0.00    +0.006 A 
ATOM      9  C   LIG    1       27.809  79.995 -10.884  0.00  0.00    +0.042 A 
ATOM     10  C   LIG    1       26.534  80.559 -10.760  0.00  0.00    +0.199 A 
ATOM     11  O   LIG    1       26.024  80.780  -9.499  0.00  0.00    -0.286 OA
ATOM     12  C   LIG    1       25.798  80.888 -11.889  0.00  0.00    +0.084 A 
ATOM     13  C   LIG    1       26.302  80.670 -13.144  0.00  0.00    +0.199 A 
ATOM     14  O   LIG    1       25.622  80.974 -14.311  0.00  0.00    -0.286 OA
ATOM     15  C   LIG    1       27.568  80.109 -13.226  0.00  0.00    +0.042 A 
ENDBRANCH   7   8
BRANCH   6   5
ATOM      1  O   LIG    1       35.974  77.816 -12.721  0.00  0.00    -0.287 OA
ATOM      2  C   LIG    1       34.684  78.301 -12.502  0.00  0.00    +0.196 A 
ATOM      3  C   LIG    1       33.848  78.580 -13.563  0.00  0.00    +0.042 A 
ATOM      4  C   LIG    1       32.574  79.060 -13.338  0.00  0.00    +0.003 A 
ATOM      5  C   LIG    1       32.077  79.281 -12.071  0.00  0.00    +0.000 A 
ATOM     16  C   LIG    1       32.915  79.000 -11.012  0.00  0.00    +0.003 A 
ATOM     17  C   LIG    1       34.190  78.521 -11.234  0.00  0.00    +0.042 A 
ENDBRANCH   6   5
TORSDOF 2
ENDMDL
MODEL 4
REMARK VINA RESULT:      -5.7     40.395     42.269
REMARK  Name = 
REMARK                            x       y       z     vdW  Elec       q    Type
REMARK                         _______ _______ _______ _____ _____    ______ ____
ROOT
ATOM      6  C   LIG    1       26.491  82.797 -26.398  0.00  0.00    +0.000 C 
ATOM      7  C   LIG    1       26.486  81.605 -25.875  0.00  0.00    +0.000 C 
ENDROOT
BRANCH   7   8
ATOM      8  C   LIG    1       26.528  81.419 -24.420  0.00  0.00    +0.006 A 
ATOM      9  C   LIG    1       26.832  80.203 -23.849  0.00  0.00    +0.042 A 
ATOM     10  C   LIG    1       26.854  80.093 -22.454  0.00  0.00    +0.199 A 
ATOM     11  O   LIG    1       27.159  78.874 -21.887  0.00  0.00    -0.286 OA
ATOM     12  C   LIG    1       26.573  81.193 -21.657  0.00  0.00    +0.084 A 
ATOM     13  C   LIG    1       26.269  82.407 -22.217  0.00  0.00    +0.199 A 
ATOM     14  O   LIG    1       25.980  83.543 -21.482  0.00  0.00    -0.286 OA
ATOM     15  C   LIG    1       26.257  82.476 -23.602  0.00  0.00    +0.042 A 
ENDBRANCH   7   8
BRANCH   6   5
ATOM      1  O   LIG    1       26.144  83.841 -31.956  0.00  0.00    -0.287 OA
ATOM      2  C   LIG    1       26.250  83.588 -30.588  0.00  0.00    +0.196 A 
ATOM      3  C   LIG    1       25.140  83.228 -29.852  0.00  0.00    +0.042 A 
ATOM      4  C   LIG    1       25.253  82.979 -28.499  0.00  0.00    +0.003 A 
ATOM      5  C   LIG    1       26.452  83.074 -27.824  0.00  0.00    +0.000 A 
ATOM     16  C   LIG    1       27.559  83.435 -28.563  0.00  0.00    +0.003 A 
ATOM     17  C   LIG    1       27.450  83.685 -29.916  0.00  0.00    +0.042 A 
ENDBRANCH   6   5
TORSDOF 2
ENDMDL
MODEL 5
REMARK VINA RESULT:      -5.7     39.254     43.998
REMARK  Name = 
REMARK                            x       y       z     vdW  Elec       q    Type
REMARK                         _______ _______ _______ _____ _____    ______ ____
ROOT
ATOM      6  C   LIG    1        8.114  41.976 -15.158  0.00  0.00    +0.000 C 
ATOM      7  C   LIG    1        7.258  41.049 -14.839  0.00  0.00    +0.000 C 
ENDROOT
BRANCH   7   8
ATOM      8  C   LIG    1        7.234  39.766 -15.552  0.00  0.00    +0.006 A 
ATOM      9  C   LIG    1        7.753  39.627 -16.820  0.00  0.00    +0.042 A 
ATOM     10  C   LIG    1        7.699  38.376 -17.444  0.00  0.00    +0.199 A 
ATOM     11  O   LIG    1        8.220  38.242 -18.713  0.00  0.00    -0.286 OA
ATOM     12  C   LIG    1        7.129  37.290 -16.795  0.00  0.00    +0.084 A 
ATOM     13  C   LIG    1        6.610  37.419 -15.533  0.00  0.00    +0.199 A 
ATOM     14  O   LIG    1        6.029  36.379 -14.829  0.00  0.00    -0.286 OA
ATOM     15  C   LIG    1        6.682  38.675 -14.948  0.00  0.00    +0.042 A 
ENDBRANCH   7   8
BRANCH   6   5
ATOM      1  O   LIG    1        8.606  47.089 -12.768  0.00  0.00    -0.287 OA
ATOM      2  C   LIG    1        8.472  45.824 -13.342  0.00  0.00    +0.196 A 
ATOM      3  C   LIG    1        9.137  45.507 -14.508  0.00  0.00    +0.042 A 
ATOM      4  C   LIG    1        9.000  44.254 -15.069  0.00  0.00    +0.003 A 
ATOM      5  C   LIG    1        8.209  43.272 -14.508  0.00  0.00    +0.000 A 
ATOM     16  C   LIG    1        7.546  43.593 -13.342  0.00  0.00    +0.003 A 
ATOM     17  C   LIG    1        7.681  44.845 -12.779  0.00  0.00    +0.042 A 
ENDBRANCH   6   5
TORSDOF 2
ENDMDL
MODEL 6
REMARK VINA RESULT:      -5.7     39.365     44.151
REMARK  Name = 
REMARK                            x       y       z     vdW  Elec       q    Type
REMARK                         _______ _______ _______ _____ _____    ______ ____
ROOT
ATOM      6  C   LIG    1        8.078  41.818 -15.153  0.00  0.00    +0.000 C 
ATOM      7  C   LIG    1        7.218  40.904 -14.807  0.00  0.00    +0.000 C 
ENDROOT
BRANCH   7   8
ATOM      8  C   LIG    1        7.173  39.609 -15.498  0.00  0.00    +0.006 A 
ATOM      9  C   LIG    1        6.580  38.503 -14.933  0.00  0.00    +0.042 A 
ATOM     10  C   LIG    1        6.572  37.298 -15.644  0.00  0.00    +0.199 A 
ATOM     11  O   LIG    1        5.977  36.192 -15.074  0.00  0.00    -0.286 OA
ATOM     12  C   LIG    1        7.154  37.218 -16.901  0.00  0.00    +0.084 A 
ATOM     13  C   LIG    1        7.746  38.315 -17.471  0.00  0.00    +0.199 A 
ATOM     14  O   LIG    1        8.344  38.306 -18.719  0.00  0.00    -0.286 OA
ATOM     15  C   LIG    1        7.735  39.491 -16.735  0.00  0.00    +0.042 A 
ENDBRANCH   7   8
BRANCH   6   5
ATOM      1  O   LIG    1        8.649  46.966 -12.857  0.00  0.00    -0.287 OA
ATOM      2  C   LIG    1        8.495  45.692 -13.407  0.00  0.00    +0.196 A 
ATOM      3  C   LIG    1        9.150  45.346 -14.571  0.00  0.00    +0.042 A 
ATOM      4  C   LIG    1        8.993  44.085 -15.109  0.00  0.00    +0.003 A 
ATOM      5  C   LIG    1        8.193  43.124 -14.527  0.00  0.00    +0.000 A 
ATOM     16  C   LIG    1        7.541  43.474 -13.363  0.00  0.00    +0.003 A 
ATOM     17  C   LIG    1        7.695  44.734 -12.823  0.00  0.00    +0.042 A 
ENDBRANCH   6   5
TORSDOF 2
ENDMDL
MODEL 7
REMARK VINA RESULT:      -5.5     41.882     44.051
REMARK  Name = 
REMARK                            x       y       z     vdW  Elec       q    Type
REMARK                         _______ _______ _______ _____ _____    ______ ____
ROOT
ATOM      6  C   LIG    1       26.029  82.538 -26.865  0.00  0.00    +0.000 C 
ATOM      7  C   LIG    1       25.911  83.528 -27.702  0.00  0.00    +0.000 C 
ENDROOT
BRANCH   7   8
ATOM      8  C   LIG    1       25.907  83.295 -29.151  0.00  0.00    +0.006 A 
ATOM      9  C   LIG    1       25.070  83.986 -29.998  0.00  0.00    +0.042 A 
ATOM     10  C   LIG    1       25.115  83.715 -31.370  0.00  0.00    +0.199 A 
ATOM     11  O   LIG    1       24.275  84.409 -32.214  0.00  0.00    -0.286 OA
ATOM     12  C   LIG    1       25.992  82.763 -31.871  0.00  0.00    +0.084 A 
ATOM     13  C   LIG    1       26.829  82.071 -31.035  0.00  0.00    +0.199 A 
ATOM     14  O   LIG    1       27.727  81.110 -31.466  0.00  0.00    -0.286 OA
ATOM     15  C   LIG    1       26.754  82.367 -29.681  0.00  0.00    +0.042 A 
ENDBRANCH   7   8
BRANCH   6   5
ATOM      1  O   LIG    1       25.950  82.930 -21.213  0.00  0.00    -0.287 OA
ATOM      2  C   LIG    1       25.984  82.849 -22.606  0.00  0.00    +0.196 A 
ATOM      3  C   LIG    1       25.205  81.927 -23.275  0.00  0.00    +0.042 A 
ATOM      4  C   LIG    1       25.244  81.854 -24.652  0.00  0.00    +0.003 A 
ATOM      5  C   LIG    1       26.043  82.677 -25.418  0.00  0.00    +0.000 A 
ATOM     16  C   LIG    1       26.819  83.597 -24.746  0.00  0.00    +0.003 A 
ATOM     17  C   LIG    1       26.784  83.673 -23.368  0.00  0.00    +0.042 A 
ENDBRANCH   6   5
TORSDOF 2
ENDMDL
MODEL 8
REMARK VINA RESULT:      -5.5     17.729     19.043
REMARK  Name = 
REMARK                            x       y       z     vdW  Elec       q    Type
REMARK                         _______ _______ _______ _____ _____    ______ ____
ROOT
ATOM      6  C   LIG    1        3.883  80.769  12.108  0.00  0.00    +0.000 C 
ATOM      7  C   LIG    1        4.892  80.332  12.804  0.00  0.00    +0.000 C 
ENDROOT
BRANCH   7   8
ATOM      8  C   LIG    1        6.201  80.995  12.735  0.00  0.00    +0.006 A 
ATOM      9  C   LIG    1        6.752  81.396  11.539  0.00  0.00    +0.042 A 
ATOM     10  C   LIG    1        8.003  82.022  11.544  0.00  0.00    +0.199 A 
ATOM     11  O   LIG    1        8.552  82.422  10.344  0.00  0.00    -0.286 OA
ATOM     12  C   LIG    1        8.679  82.237  12.737  0.00  0.00    +0.084 A 
ATOM     13  C   LIG    1        8.137  81.842  13.932  0.00  0.00    +0.199 A 
ATOM     14  O   LIG    1        8.754  82.025  15.156  0.00  0.00    -0.286 OA
ATOM     15  C   LIG    1        6.895  81.224  13.886  0.00  0.00    +0.042 A 
ENDBRANCH   7   8
BRANCH   6   5
ATOM      1  O   LIG    1       -1.275  78.435  12.329  0.00  0.00    -0.287 OA
ATOM      2  C   LIG    1       -0.007  79.013  12.254  0.00  0.00    +0.196 A 
ATOM      3  C   LIG    1        0.763  79.168  13.388  0.00  0.00    +0.042 A 
ATOM      4  C   LIG    1        2.016  79.740  13.306  0.00  0.00    +0.003 A 
ATOM      5  C   LIG    1        2.556  80.177  12.114  0.00  0.00    +0.000 A 
ATOM     16  C   LIG    1        1.784  80.019  10.983  0.00  0.00    +0.003 A 
ATOM     17  C   LIG    1        0.530  79.448  11.061  0.00  0.00    +0.042 A 
ENDBRANCH   6   5
TORSDOF 2
ENDMDL
MODEL 9
REMARK VINA RESULT:      -5.5     25.953     29.345
REMARK  Name = 
REMARK                            x       y       z     vdW  Elec       q    Type
REMARK                         _______ _______ _______ _____ _____    ______ ____
ROOT
ATOM      6  C   LIG    1       14.381  68.719 -13.445  0.00  0.00    +0.000 C 
ATOM      7  C   LIG    1       14.290  69.914 -13.953  0.00  0.00    +0.000 C 
ENDROOT
BRANCH   7   8
ATOM      8  C   LIG    1       13.014  70.416 -14.479  0.00  0.00    +0.006 A 
ATOM      9  C   LIG    1       12.518  71.651 -14.129  0.00  0.00    +0.042 A 
ATOM     10  C   LIG    1       11.295  72.069 -14.665  0.00  0.00    +0.199 A 
ATOM     11  O   LIG    1       10.801  73.307 -14.312  0.00  0.00    -0.286 OA
ATOM     12  C   LIG    1       10.593  71.251 -15.539  0.00  0.00    +0.084 A 
ATOM     13  C   LIG    1       11.080  70.020 -15.894  0.00  0.00    +0.199 A 
ATOM     14  O   LIG    1       10.433  69.155 -16.758  0.00  0.00    -0.286 OA
ATOM     15  C   LIG    1       12.295  69.641 -15.340  0.00  0.00    +0.042 A 
ENDBRANCH   7   8
BRANCH   6   5
ATOM      1  O   LIG    1       19.132  66.611 -11.191  0.00  0.00    -0.287 OA
ATOM      2  C   LIG    1       17.962  67.115 -11.761  0.00  0.00    +0.196 A 
ATOM      3  C   LIG    1       17.350  68.234 -11.235  0.00  0.00    +0.042 A 
ATOM      4  C   LIG    1       16.193  68.726 -11.804  0.00  0.00    +0.003 A 
ATOM      5  C   LIG    1       15.599  68.142 -12.903  0.00  0.00    +0.000 A 
ATOM     16  C   LIG    1       16.214  67.024 -13.426  0.00  0.00    +0.003 A 
ATOM     17  C   LIG    1       17.371  66.529 -12.859  0.00  0.00    +0.042 A 
ENDBRANCH   6   5
TORSDOF 2
ENDMDL
MODEL 10
REMARK VINA RESULT:      -5.5     17.218     18.626
REMARK  Name = 
REMARK                            x       y       z     vdW  Elec       q    Type
REMARK                         _______ _______ _______ _____ _____    ______ ____
ROOT
ATOM      6  C   LIG    1        7.214  59.421   8.109  0.00  0.00    +0.000 C 
ATOM      7  C   LIG    1        8.410  59.818   7.781  0.00  0.00    +0.000 C 
ENDROOT
BRANCH   7   8
ATOM      8  C   LIG    1        9.549  58.892   7.815  0.00  0.00    +0.006 A 
ATOM      9  C   LIG    1       10.706  59.134   7.108  0.00  0.00    +0.042 A 
ATOM     10  C   LIG    1       11.754  58.211   7.184  0.00  0.00    +0.199 A 
ATOM     11  O   LIG    1       12.911  58.458   6.475  0.00  0.00    -0.286 OA
ATOM     12  C   LIG    1       11.631  57.068   7.960  0.00  0.00    +0.084 A 
ATOM     13  C   LIG    1       10.484  56.819   8.667  0.00  0.00    +0.199 A 
ATOM     14  O   LIG    1       10.294  55.701   9.460  0.00  0.00    -0.286 OA
ATOM     15  C   LIG    1        9.466  57.757   8.566  0.00  0.00    +0.042 A 
ENDBRANCH   7   8
BRANCH   6   5
ATOM      1  O   LIG    1        2.626  62.737   7.893  0.00  0.00    -0.287 OA
ATOM      2  C   LIG    1        3.754  61.918   7.967  0.00  0.00    +0.196 A 
ATOM      3  C   LIG    1        4.483  61.624   6.834  0.00  0.00    +0.042 A 
ATOM      4  C   LIG    1        5.597  60.813   6.915  0.00  0.00    +0.003 A 
ATOM      5  C   LIG    1        6.032  60.265   8.104  0.00  0.00    +0.000 A 
ATOM     16  C   LIG    1        5.300  60.562   9.234  0.00  0.00    +0.003 A 
ATOM     17  C   LIG    1        4.185  61.372   9.156  0.00  0.00    +0.042 A 
ENDBRANCH   6   5
TORSDOF 2
ENDMDL
