MODEL 1
REMARK VINA RESULT:      -8.2      0.000      0.000
REMARK  Name = 
REMARK                            x       y       z     vdW  Elec       q    Type
REMARK                         _______ _______ _______ _____ _____    ______ ____
ROOT
ATOM     14  C   LIG    1        3.856  60.327   9.146  0.00  0.00    +0.195 C 
ATOM     15  C   LIG    1        3.319  59.653   7.680  0.00  0.00    +0.216 C 
ATOM     16  O   LIG    1        1.859  59.616   7.951  0.00  0.00    -0.218 OA
ATOM     17  C   LIG    1        3.213  60.960   6.644  0.00  0.00    +0.221 C 
ATOM     18  O   LIG    1        3.122  62.157   7.484  0.00  0.00    -0.217 OA
ATOM     19  C   LIG    1        4.837  61.108   6.229  0.00  0.00    +0.254 C 
ATOM     20  O   LIG    1        4.903  59.759   5.631  0.00  0.00    -0.213 OA
ATOM     21  C   LIG    1        5.697  60.869   7.674  0.00  0.00    +0.322 C 
ATOM     39  O   LIG    1        4.703  61.420   8.621  0.00  0.00    -0.315 OA
ENDROOT
BRANCH  14  13
ATOM     13  C   LIG    1        2.666  61.281   9.584  0.00  0.00    +0.241 C 
BRANCH  13  12
ATOM     12  O   LIG    1        2.540  61.835  10.696  0.00  0.00    -0.443 OA
BRANCH  12   2
ATOM      1  O   LIG    1        0.464  62.847  10.955  0.00  0.00    -0.245 OA
ATOM      2  C   LIG    1        1.249  61.906  11.237  0.00  0.00    +0.341 C 
BRANCH   2   3
ATOM      3  C   LIG    1        0.841  60.837  12.148  0.00  0.00    +0.082 A 
ATOM      4  C   LIG    1        1.649  60.197  13.027  0.00  0.00    +0.052 A 
ATOM      5  C   LIG    1        1.195  59.175  13.878  0.00  0.00    +0.238 A 
ATOM      6  O   LIG    1        2.055  58.560  14.749  0.00  0.00    -0.283 OA
ATOM      7  C   LIG    1       -0.130  58.828  13.798  0.00  0.00    +0.273 A 
ATOM      8  O   LIG    1       -0.616  57.832  14.614  0.00  0.00    -0.280 OA
ATOM      9  C   LIG    1       -0.980  59.457  12.916  0.00  0.00    +0.238 A 
ATOM     10  O   LIG    1       -2.303  59.074  12.871  0.00  0.00    -0.283 OA
ATOM     11  C   LIG    1       -0.482  60.470  12.086  0.00  0.00    +0.052 A 
ENDBRANCH   2   3
ENDBRANCH  12   2
ENDBRANCH  13  12
ENDBRANCH  14  13
BRANCH  21  22
ATOM     22  O   LIG    1        5.535  59.388   7.905  0.00  0.00    -0.450 OA
BRANCH  22  23
ATOM     23  C   LIG    1        6.609  58.595   8.039  0.00  0.00    +0.141 A 
ATOM     24  C   LIG    1        7.740  59.114   8.687  0.00  0.00    +0.037 A 
ATOM     25  C   LIG    1        8.769  58.246   8.778  0.00  0.00    +0.003 A 
ATOM     26  C   LIG    1        8.857  56.990   8.345  0.00  0.00    +0.000 A 
ATOM     37  C   LIG    1        7.679  56.530   7.699  0.00  0.00    +0.003 A 
ATOM     38  C   LIG    1        6.597  57.330   7.561  0.00  0.00    +0.037 A 
BRANCH  26  27
ATOM     27  C   LIG    1        9.888  56.012   8.394  0.00  0.00    +0.000 C 
ATOM     28  C   LIG    1       11.054  56.089   7.999  0.00  0.00    +0.000 C 
BRANCH  28  29
ATOM     29  C   LIG    1       11.633  57.243   7.378  0.00  0.00    +0.006 A 
ATOM     30  C   LIG    1       11.421  57.804   6.175  0.00  0.00    +0.042 A 
ATOM     31  C   LIG    1       12.055  58.916   5.711  0.00  0.00    +0.199 A 
ATOM     32  O   LIG    1       11.781  59.440   4.446  0.00  0.00    -0.286 OA
ATOM     33  C   LIG    1       12.977  59.527   6.508  0.00  0.00    +0.084 A 
ATOM     34  C   LIG    1       13.235  59.000   7.748  0.00  0.00    +0.199 A 
ATOM     35  O   LIG    1       14.195  59.651   8.554  0.00  0.00    -0.286 OA
ATOM     36  C   LIG    1       12.590  57.896   8.176  0.00  0.00    +0.042 A 
ENDBRANCH  28  29
ENDBRANCH  26  27
ENDBRANCH  22  23
ENDBRANCH  21  22
TORSDOF 8
ENDMDL
MODEL 2
REMARK VINA RESULT:      -8.0     15.200     19.224
REMARK  Name = 
REMARK                            x       y       z     vdW  Elec       q    Type
REMARK                         _______ _______ _______ _____ _____    ______ ____
ROOT
ATOM     14  C   LIG    1       20.303  66.100  13.991  0.00  0.00    +0.195 C 
ATOM     15  C   LIG    1       19.913  66.625  12.422  0.00  0.00    +0.216 C 
ATOM     16  O   LIG    1       20.380  65.447  11.649  0.00  0.00    -0.218 OA
ATOM     17  C   LIG    1       18.296  66.243  12.253  0.00  0.00    +0.221 C 
ATOM     18  O   LIG    1       18.001  65.207  13.246  0.00  0.00    -0.217 OA
ATOM     19  C   LIG    1       17.622  67.542  13.086  0.00  0.00    +0.254 C 
ATOM     20  O   LIG    1       18.192  68.547  12.166  0.00  0.00    -0.213 OA
ATOM     21  C   LIG    1       18.603  67.757  14.456  0.00  0.00    +0.322 C 
ATOM     39  O   LIG    1       19.010  66.350  14.665  0.00  0.00    -0.315 OA
ENDROOT
BRANCH  14  13
ATOM     13  C   LIG    1       20.114  64.527  13.923  0.00  0.00    +0.241 C 
BRANCH  13  12
ATOM     12  O   LIG    1       20.424  63.709  14.816  0.00  0.00    -0.443 OA
BRANCH  12   2
ATOM      1  O   LIG    1       19.435  61.835  13.863  0.00  0.00    -0.245 OA
ATOM      2  C   LIG    1       19.684  62.522  14.887  0.00  0.00    +0.341 C 
BRANCH   2   3
ATOM      3  C   LIG    1       19.205  62.104  16.204  0.00  0.00    +0.082 A 
ATOM      4  C   LIG    1       17.917  62.131  16.621  0.00  0.00    +0.052 A 
ATOM      5  C   LIG    1       17.520  61.715  17.903  0.00  0.00    +0.238 A 
ATOM      6  O   LIG    1       16.201  61.764  18.275  0.00  0.00    -0.283 OA
ATOM      7  C   LIG    1       18.498  61.264  18.753  0.00  0.00    +0.273 A 
ATOM      8  O   LIG    1       18.152  60.847  20.018  0.00  0.00    -0.280 OA
ATOM      9  C   LIG    1       19.818  61.223  18.363  0.00  0.00    +0.238 A 
ATOM     10  O   LIG    1       20.766  60.762  19.250  0.00  0.00    -0.283 OA
ATOM     11  C   LIG    1       20.167  61.649  17.075  0.00  0.00    +0.052 A 
ENDBRANCH   2   3
ENDBRANCH  12   2
ENDBRANCH  13  12
ENDBRANCH  14  13
BRANCH  21  22
ATOM     22  O   LIG    1       19.860  68.343  13.865  0.00  0.00    -0.450 OA
BRANCH  22  23
ATOM     23  C   LIG    1       20.428  69.430  14.407  0.00  0.00    +0.141 A 
ATOM     24  C   LIG    1       20.203  70.672  13.794  0.00  0.00    +0.037 A 
ATOM     25  C   LIG    1       20.811  71.707  14.410  0.00  0.00    +0.003 A 
ATOM     26  C   LIG    1       21.580  71.713  15.496  0.00  0.00    +0.000 A 
ATOM     37  C   LIG    1       21.766  70.425  16.064  0.00  0.00    +0.003 A 
ATOM     38  C   LIG    1       21.196  69.327  15.516  0.00  0.00    +0.037 A 
BRANCH  26  27
ATOM     27  C   LIG    1       22.256  72.742  16.208  0.00  0.00    +0.000 C 
ATOM     28  C   LIG    1       23.201  73.446  15.846  0.00  0.00    +0.000 C 
BRANCH  28  29
ATOM     29  C   LIG    1       23.842  73.363  14.567  0.00  0.00    +0.006 A 
ATOM     30  C   LIG    1       24.711  72.469  14.067  0.00  0.00    +0.042 A 
ATOM     31  C   LIG    1       25.246  72.518  12.816  0.00  0.00    +0.199 A 
ATOM     32  O   LIG    1       26.145  71.550  12.365  0.00  0.00    -0.286 OA
ATOM     33  C   LIG    1       24.888  73.540  11.988  0.00  0.00    +0.084 A 
ATOM     34  C   LIG    1       24.002  74.485  12.444  0.00  0.00    +0.199 A 
ATOM     35  O   LIG    1       23.648  75.534  11.567  0.00  0.00    -0.286 OA
ATOM     36  C   LIG    1       23.492  74.406  13.690  0.00  0.00    +0.042 A 
ENDBRANCH  28  29
ENDBRANCH  26  27
ENDBRANCH  22  23
ENDBRANCH  21  22
TORSDOF 8
ENDMDL
MODEL 3
REMARK VINA RESULT:      -7.9     23.217     29.943
REMARK  Name = 
REMARK                            x       y       z     vdW  Elec       q    Type
REMARK                         _______ _______ _______ _____ _____    ______ ____
ROOT
ATOM     14  C   LIG    1       28.874  58.826  -6.641  0.00  0.00    +0.195 C 
ATOM     15  C   LIG    1       29.358  57.197  -6.646  0.00  0.00    +0.216 C 
ATOM     16  O   LIG    1       28.996  56.833  -5.253  0.00  0.00    -0.218 OA
ATOM     17  C   LIG    1       28.061  56.387  -7.320  0.00  0.00    +0.221 C 
ATOM     18  O   LIG    1       26.894  57.260  -7.168  0.00  0.00    -0.217 OA
ATOM     19  C   LIG    1       28.359  56.703  -8.945  0.00  0.00    +0.254 C 
ATOM     20  O   LIG    1       29.668  56.019  -8.935  0.00  0.00    -0.213 OA
ATOM     21  C   LIG    1       28.841  58.331  -9.008  0.00  0.00    +0.322 C 
ATOM     39  O   LIG    1       28.049  58.844  -7.869  0.00  0.00    -0.315 OA
ENDROOT
BRANCH  14  13
ATOM     13  C   LIG    1       27.635  58.852  -5.650  0.00  0.00    +0.241 C 
BRANCH  13  12
ATOM     12  O   LIG    1       27.047  59.873  -5.233  0.00  0.00    -0.443 OA
BRANCH  12   2
ATOM      1  O   LIG    1       26.037  60.289  -3.182  0.00  0.00    -0.245 OA
ATOM      2  C   LIG    1       26.030  59.688  -4.288  0.00  0.00    +0.341 C 
BRANCH   2   3
ATOM      3  C   LIG    1       24.949  58.765  -4.631  0.00  0.00    +0.082 A 
ATOM      4  C   LIG    1       24.004  58.974  -5.579  0.00  0.00    +0.052 A 
ATOM      5  C   LIG    1       22.988  58.047  -5.862  0.00  0.00    +0.238 A 
ATOM      6  O   LIG    1       22.055  58.308  -6.832  0.00  0.00    -0.283 OA
ATOM      7  C   LIG    1       22.973  56.883  -5.135  0.00  0.00    +0.273 A 
ATOM      8  O   LIG    1       21.994  55.947  -5.382  0.00  0.00    -0.280 OA
ATOM      9  C   LIG    1       23.918  56.637  -4.164  0.00  0.00    +0.238 A 
ATOM     10  O   LIG    1       23.863  55.454  -3.459  0.00  0.00    -0.283 OA
ATOM     11  C   LIG    1       24.912  57.592  -3.915  0.00  0.00    +0.052 A 
ENDBRANCH   2   3
ENDBRANCH  12   2
ENDBRANCH  13  12
ENDBRANCH  14  13
BRANCH  21  22
ATOM     22  O   LIG    1       30.223  58.282  -8.409  0.00  0.00    -0.450 OA
BRANCH  22  23
ATOM     23  C   LIG    1       31.247  58.920  -8.997  0.00  0.00    +0.141 A 
ATOM     24  C   LIG    1       32.505  58.300  -8.991  0.00  0.00    +0.037 A 
ATOM     25  C   LIG    1       33.472  59.013  -9.606  0.00  0.00    +0.003 A 
ATOM     26  C   LIG    1       33.397  60.199 -10.206  0.00  0.00    +0.000 A 
ATOM     37  C   LIG    1       32.096  60.767 -10.175  0.00  0.00    +0.003 A 
ATOM     38  C   LIG    1       31.064  60.127  -9.579  0.00  0.00    +0.037 A 
BRANCH  26  27
ATOM     27  C   LIG    1       34.350  61.016 -10.873  0.00  0.00    +0.000 C 
ATOM     28  C   LIG    1       34.957  60.804 -11.925  0.00  0.00    +0.000 C 
BRANCH  28  29
ATOM     29  C   LIG    1       34.814  59.627 -12.730  0.00  0.00    +0.006 A 
ATOM     30  C   LIG    1       33.721  58.990 -13.184  0.00  0.00    +0.042 A 
ATOM     31  C   LIG    1       33.737  57.865 -13.950  0.00  0.00    +0.199 A 
ATOM     32  O   LIG    1       32.557  57.259 -14.385  0.00  0.00    -0.286 OA
ATOM     33  C   LIG    1       34.939  57.323 -14.297  0.00  0.00    +0.084 A 
ATOM     34  C   LIG    1       36.091  57.930 -13.861  0.00  0.00    +0.199 A 
ATOM     35  O   LIG    1       37.324  57.349 -14.233  0.00  0.00    -0.286 OA
ATOM     36  C   LIG    1       36.039  59.045 -13.103  0.00  0.00    +0.042 A 
ENDBRANCH  28  29
ENDBRANCH  26  27
ENDBRANCH  22  23
ENDBRANCH  21  22
TORSDOF 8
ENDMDL
MODEL 4
REMARK VINA RESULT:      -7.8     23.725     27.949
REMARK  Name = 
REMARK                            x       y       z     vdW  Elec       q    Type
REMARK                         _______ _______ _______ _____ _____    ______ ____
ROOT
ATOM     14  C   LIG    1       14.806  63.964 -14.735  0.00  0.00    +0.195 C 
ATOM     15  C   LIG    1       13.583  63.672 -13.591  0.00  0.00    +0.216 C 
ATOM     16  O   LIG    1       13.063  62.384 -14.116  0.00  0.00    -0.218 OA
ATOM     17  C   LIG    1       14.385  62.960 -12.309  0.00  0.00    +0.221 C 
ATOM     18  O   LIG    1       15.640  62.424 -12.841  0.00  0.00    -0.217 OA
ATOM     19  C   LIG    1       15.024  64.341 -11.589  0.00  0.00    +0.254 C 
ATOM     20  O   LIG    1       13.697  64.934 -11.329  0.00  0.00    -0.213 OA
ATOM     21  C   LIG    1       15.569  65.309 -12.874  0.00  0.00    +0.322 C 
ATOM     39  O   LIG    1       15.939  64.235 -13.824  0.00  0.00    -0.315 OA
ENDROOT
BRANCH  14  13
ATOM     13  C   LIG    1       15.306  62.512 -15.136  0.00  0.00    +0.241 C 
BRANCH  13  12
ATOM     12  O   LIG    1       16.051  62.230 -16.098  0.00  0.00    -0.443 OA
BRANCH  12   2
ATOM      1  O   LIG    1       17.915  61.247 -15.119  0.00  0.00    -0.245 OA
ATOM      2  C   LIG    1       16.952  61.172 -15.926  0.00  0.00    +0.341 C 
BRANCH   2   3
ATOM      3  C   LIG    1       16.734  59.964 -16.722  0.00  0.00    +0.082 A 
ATOM      4  C   LIG    1       15.604  59.219 -16.732  0.00  0.00    +0.052 A 
ATOM      5  C   LIG    1       15.457  58.065 -17.520  0.00  0.00    +0.238 A 
ATOM      6  O   LIG    1       14.290  57.346 -17.493  0.00  0.00    -0.283 OA
ATOM      7  C   LIG    1       16.518  57.697 -18.308  0.00  0.00    +0.273 A 
ATOM      8  O   LIG    1       16.415  56.574 -19.096  0.00  0.00    -0.280 OA
ATOM      9  C   LIG    1       17.683  58.432 -18.323  0.00  0.00    +0.238 A 
ATOM     10  O   LIG    1       18.723  58.024 -19.129  0.00  0.00    -0.283 OA
ATOM     11  C   LIG    1       17.785  59.575 -17.518  0.00  0.00    +0.052 A 
ENDBRANCH   2   3
ENDBRANCH  12   2
ENDBRANCH  13  12
ENDBRANCH  14  13
BRANCH  21  22
ATOM     22  O   LIG    1       14.278  65.802 -13.477  0.00  0.00    -0.450 OA
BRANCH  22  23
ATOM     23  C   LIG    1       14.107  67.103 -13.757  0.00  0.00    +0.141 A 
ATOM     24  C   LIG    1       13.228  67.448 -14.794  0.00  0.00    +0.037 A 
ATOM     25  C   LIG    1       13.117  68.777 -15.002  0.00  0.00    +0.003 A 
ATOM     26  C   LIG    1       13.716  69.785 -14.371  0.00  0.00    +0.000 A 
ATOM     37  C   LIG    1       14.591  69.364 -13.335  0.00  0.00    +0.003 A 
ATOM     38  C   LIG    1       14.766  68.052 -13.054  0.00  0.00    +0.037 A 
BRANCH  26  27
ATOM     27  C   LIG    1       13.662  71.198 -14.519  0.00  0.00    +0.000 C 
ATOM     28  C   LIG    1       12.703  71.959 -14.375  0.00  0.00    +0.000 C 
BRANCH  28  29
ATOM     29  C   LIG    1       11.379  71.549 -14.008  0.00  0.00    +0.006 A 
ATOM     30  C   LIG    1       10.304  71.249 -14.756  0.00  0.00    +0.042 A 
ATOM     31  C   LIG    1        9.093  70.870 -14.262  0.00  0.00    +0.199 A 
ATOM     32  O   LIG    1        8.020  70.574 -15.104  0.00  0.00    -0.286 OA
ATOM     33  C   LIG    1        8.934  70.778 -12.911  0.00  0.00    +0.084 A 
ATOM     34  C   LIG    1        9.998  71.072 -12.096  0.00  0.00    +0.199 A 
ATOM     35  O   LIG    1        9.807  70.970 -10.700  0.00  0.00    -0.286 OA
ATOM     36  C   LIG    1       11.184  71.446 -12.619  0.00  0.00    +0.042 A 
ENDBRANCH  28  29
ENDBRANCH  26  27
ENDBRANCH  22  23
ENDBRANCH  21  22
TORSDOF 8
ENDMDL
MODEL 5
REMARK VINA RESULT:      -7.7     21.578     27.738
REMARK  Name = 
REMARK                            x       y       z     vdW  Elec       q    Type
REMARK                         _______ _______ _______ _____ _____    ______ ____
ROOT
ATOM     14  C   LIG    1       15.274  60.781 -15.037  0.00  0.00    +0.195 C 
ATOM     15  C   LIG    1       14.650  61.540 -13.649  0.00  0.00    +0.216 C 
ATOM     16  O   LIG    1       15.903  61.677 -12.864  0.00  0.00    -0.218 OA
ATOM     17  C   LIG    1       14.592  63.159 -14.061  0.00  0.00    +0.221 C 
ATOM     18  O   LIG    1       15.524  63.344 -15.176  0.00  0.00    -0.217 OA
ATOM     19  C   LIG    1       13.171  63.158 -14.961  0.00  0.00    +0.254 C 
ATOM     20  O   LIG    1       12.341  62.706 -13.826  0.00  0.00    -0.213 OA
ATOM     21  C   LIG    1       13.233  61.747 -15.904  0.00  0.00    +0.322 C 
ATOM     39  O   LIG    1       14.700  61.659 -16.079  0.00  0.00    -0.315 OA
ENDROOT
BRANCH  14  13
ATOM     13  C   LIG    1       16.742  61.369 -15.164  0.00  0.00    +0.241 C 
BRANCH  13  12
ATOM     12  O   LIG    1       17.765  60.728 -15.486  0.00  0.00    -0.443 OA
BRANCH  12   2
ATOM      1  O   LIG    1       18.985  61.819 -17.136  0.00  0.00    -0.245 OA
ATOM      2  C   LIG    1       18.227  60.873 -16.801  0.00  0.00    +0.341 C 
BRANCH   2   3
ATOM      3  C   LIG    1       17.794  59.876 -17.780  0.00  0.00    +0.082 A 
ATOM      4  C   LIG    1       18.363  58.663 -17.977  0.00  0.00    +0.052 A 
ATOM      5  C   LIG    1       17.900  57.748 -18.937  0.00  0.00    +0.238 A 
ATOM      6  O   LIG    1       18.513  56.532 -19.095  0.00  0.00    -0.283 OA
ATOM      7  C   LIG    1       16.821  58.122 -19.698  0.00  0.00    +0.273 A 
ATOM      8  O   LIG    1       16.336  57.255 -20.650  0.00  0.00    -0.280 OA
ATOM      9  C   LIG    1       16.218  59.348 -19.526  0.00  0.00    +0.238 A 
ATOM     10  O   LIG    1       15.137  59.680 -20.313  0.00  0.00    -0.283 OA
ATOM     11  C   LIG    1       16.715  60.228 -18.556  0.00  0.00    +0.052 A 
ENDBRANCH   2   3
ENDBRANCH  12   2
ENDBRANCH  13  12
ENDBRANCH  14  13
BRANCH  21  22
ATOM     22  O   LIG    1       12.993  60.665 -14.883  0.00  0.00    -0.450 OA
BRANCH  22  23
ATOM     23  C   LIG    1       12.225  59.605 -15.177  0.00  0.00    +0.141 A 
ATOM     24  C   LIG    1       10.995  59.832 -15.812  0.00  0.00    +0.037 A 
ATOM     25  C   LIG    1       10.294  58.709 -16.072  0.00  0.00    +0.003 A 
ATOM     26  C   LIG    1       10.603  57.440 -15.813  0.00  0.00    +0.000 A 
ATOM     37  C   LIG    1       11.859  57.283 -15.170  0.00  0.00    +0.003 A 
ATOM     38  C   LIG    1       12.632  58.352 -14.870  0.00  0.00    +0.037 A 
BRANCH  26  27
ATOM     27  C   LIG    1        9.934  56.207 -16.046  0.00  0.00    +0.000 C 
ATOM     28  C   LIG    1        9.147  55.598 -15.318  0.00  0.00    +0.000 C 
BRANCH  28  29
ATOM     29  C   LIG    1        8.726  56.037 -14.020  0.00  0.00    +0.006 A 
ATOM     30  C   LIG    1        9.353  56.023 -12.832  0.00  0.00    +0.042 A 
ATOM     31  C   LIG    1        8.821  56.479 -11.665  0.00  0.00    +0.199 A 
ATOM     32  O   LIG    1        9.536  56.431 -10.466  0.00  0.00    -0.286 OA
ATOM     33  C   LIG    1        7.560  56.996 -11.675  0.00  0.00    +0.084 A 
ATOM     34  C   LIG    1        6.869  57.037 -12.861  0.00  0.00    +0.199 A 
ATOM     35  O   LIG    1        5.564  57.577 -12.845  0.00  0.00    -0.286 OA
ATOM     36  C   LIG    1        7.426  56.576 -13.999  0.00  0.00    +0.042 A 
ENDBRANCH  28  29
ENDBRANCH  26  27
ENDBRANCH  22  23
ENDBRANCH  21  22
TORSDOF 8
ENDMDL
MODEL 6
REMARK VINA RESULT:      -7.5     30.185     34.202
REMARK  Name = 
REMARK                            x       y       z     vdW  Elec       q    Type
REMARK                         _______ _______ _______ _____ _____    ______ ____
ROOT
ATOM     14  C   LIG    1        7.191  38.392 -17.576  0.00  0.00    +0.195 C 
ATOM     15  C   LIG    1        5.559  38.834 -17.751  0.00  0.00    +0.216 C 
ATOM     16  O   LIG    1        5.249  38.121 -19.016  0.00  0.00    -0.218 OA
ATOM     17  C   LIG    1        4.734  37.741 -16.794  0.00  0.00    +0.221 C 
ATOM     18  O   LIG    1        5.620  36.589 -16.611  0.00  0.00    -0.217 OA
ATOM     19  C   LIG    1        4.988  38.452 -15.290  0.00  0.00    +0.254 C 
ATOM     20  O   LIG    1        4.295  39.703 -15.660  0.00  0.00    -0.213 OA
ATOM     21  C   LIG    1        6.609  38.960 -15.298  0.00  0.00    +0.322 C 
ATOM     39  O   LIG    1        7.169  37.910 -16.177  0.00  0.00    -0.315 OA
ENDROOT
BRANCH  14  13
ATOM     13  C   LIG    1        7.261  36.940 -18.213  0.00  0.00    +0.241 C 
BRANCH  13  12
ATOM     12  O   LIG    1        8.266  36.417 -18.740  0.00  0.00    -0.443 OA
BRANCH  12   2
ATOM      1  O   LIG    1        8.391  34.690 -17.190  0.00  0.00    -0.245 OA
ATOM      2  C   LIG    1        8.580  35.104 -18.363  0.00  0.00    +0.341 C 
BRANCH   2   3
ATOM      3  C   LIG    1        9.138  34.223 -19.388  0.00  0.00    +0.082 A 
ATOM      4  C   LIG    1        9.544  34.606 -20.623  0.00  0.00    +0.052 A 
ATOM      5  C   LIG    1       10.073  33.708 -21.565  0.00  0.00    +0.238 A 
ATOM      6  O   LIG    1       10.468  34.148 -22.802  0.00  0.00    -0.283 OA
ATOM      7  C   LIG    1       10.174  32.391 -21.196  0.00  0.00    +0.273 A 
ATOM      8  O   LIG    1       10.687  31.478 -22.090  0.00  0.00    -0.280 OA
ATOM      9  C   LIG    1        9.772  31.966 -19.950  0.00  0.00    +0.238 A 
ATOM     10  O   LIG    1        9.892  30.633 -19.623  0.00  0.00    -0.283 OA
ATOM     11  C   LIG    1        9.249  32.897 -19.043  0.00  0.00    +0.052 A 
ENDBRANCH   2   3
ENDBRANCH  12   2
ENDBRANCH  13  12
ENDBRANCH  14  13
BRANCH  21  22
ATOM     22  O   LIG    1        6.573  40.141 -16.234  0.00  0.00    -0.450 OA
BRANCH  22  23
ATOM     23  C   LIG    1        7.254  41.261 -15.949  0.00  0.00    +0.141 A 
ATOM     24  C   LIG    1        7.347  41.656 -14.606  0.00  0.00    +0.037 A 
ATOM     25  C   LIG    1        8.052  42.791 -14.415  0.00  0.00    +0.003 A 
ATOM     26  C   LIG    1        8.658  43.571 -15.307  0.00  0.00    +0.000 A 
ATOM     37  C   LIG    1        8.523  43.113 -16.644  0.00  0.00    +0.003 A 
ATOM     38  C   LIG    1        7.834  41.985 -16.933  0.00  0.00    +0.037 A 
BRANCH  26  27
ATOM     27  C   LIG    1        9.413  44.771 -15.199  0.00  0.00    +0.000 C 
ATOM     28  C   LIG    1        9.071  45.869 -14.755  0.00  0.00    +0.000 C 
BRANCH  28  29
ATOM     29  C   LIG    1        7.771  46.172 -14.231  0.00  0.00    +0.006 A 
ATOM     30  C   LIG    1        6.591  46.366 -14.843  0.00  0.00    +0.042 A 
ATOM     31  C   LIG    1        5.422  46.651 -14.208  0.00  0.00    +0.199 A 
ATOM     32  O   LIG    1        4.232  46.840 -14.914  0.00  0.00    -0.286 OA
ATOM     33  C   LIG    1        5.420  46.751 -12.848  0.00  0.00    +0.084 A 
ATOM     34  C   LIG    1        6.597  46.562 -12.168  0.00  0.00    +0.199 A 
ATOM     35  O   LIG    1        6.569  46.672 -10.760  0.00  0.00    -0.286 OA
ATOM     36  C   LIG    1        7.738  46.282 -12.829  0.00  0.00    +0.042 A 
ENDBRANCH  28  29
ENDBRANCH  26  27
ENDBRANCH  22  23
ENDBRANCH  21  22
TORSDOF 8
ENDMDL
MODEL 7
REMARK VINA RESULT:      -7.5     23.459     28.262
REMARK  Name = 
REMARK                            x       y       z     vdW  Elec       q    Type
REMARK                         _______ _______ _______ _____ _____    ______ ____
ROOT
ATOM     14  C   LIG    1       14.853  63.539 -14.494  0.00  0.00    +0.195 C 
ATOM     15  C   LIG    1       13.729  62.990 -13.344  0.00  0.00    +0.216 C 
ATOM     16  O   LIG    1       13.309  61.726 -14.000  0.00  0.00    -0.218 OA
ATOM     17  C   LIG    1       14.664  62.219 -12.194  0.00  0.00    +0.221 C 
ATOM     18  O   LIG    1       15.935  61.883 -12.840  0.00  0.00    -0.217 OA
ATOM     19  C   LIG    1       15.204  63.565 -11.339  0.00  0.00    +0.254 C 
ATOM     20  O   LIG    1       13.841  63.981 -10.951  0.00  0.00    -0.213 OA
ATOM     21  C   LIG    1       15.580  64.728 -12.517  0.00  0.00    +0.322 C 
ATOM     39  O   LIG    1       16.001  63.818 -13.605  0.00  0.00    -0.315 OA
ENDROOT
BRANCH  14  13
ATOM     13  C   LIG    1       15.470  62.205 -15.091  0.00  0.00    +0.241 C 
BRANCH  13  12
ATOM     12  O   LIG    1       16.091  62.100 -16.170  0.00  0.00    -0.443 OA
BRANCH  12   2
ATOM      1  O   LIG    1       18.223  61.313 -15.686  0.00  0.00    -0.245 OA
ATOM      2  C   LIG    1       17.106  61.136 -16.236  0.00  0.00    +0.341 C 
BRANCH   2   3
ATOM      3  C   LIG    1       16.819  59.906 -16.973  0.00  0.00    +0.082 A 
ATOM      4  C   LIG    1       15.666  59.199 -16.911  0.00  0.00    +0.052 A 
ATOM      5  C   LIG    1       15.452  58.020 -17.646  0.00  0.00    +0.238 A 
ATOM      6  O   LIG    1       14.264  57.342 -17.547  0.00  0.00    -0.283 OA
ATOM      7  C   LIG    1       16.470  57.585 -18.455  0.00  0.00    +0.273 A 
ATOM      8  O   LIG    1       16.302  56.435 -19.192  0.00  0.00    -0.280 OA
ATOM      9  C   LIG    1       17.657  58.279 -18.542  0.00  0.00    +0.238 A 
ATOM     10  O   LIG    1       18.653  57.804 -19.369  0.00  0.00    -0.283 OA
ATOM     11  C   LIG    1       17.826  59.449 -17.790  0.00  0.00    +0.052 A 
ENDBRANCH   2   3
ENDBRANCH  12   2
ENDBRANCH  13  12
ENDBRANCH  14  13
BRANCH  21  22
ATOM     22  O   LIG    1       14.216  65.152 -13.000  0.00  0.00    -0.450 OA
BRANCH  22  23
ATOM     23  C   LIG    1       13.962  66.437 -13.291  0.00  0.00    +0.141 A 
ATOM     24  C   LIG    1       12.888  67.064 -12.642  0.00  0.00    +0.037 A 
ATOM     25  C   LIG    1       12.711  68.355 -12.994  0.00  0.00    +0.003 A 
ATOM     26  C   LIG    1       13.400  69.099 -13.856  0.00  0.00    +0.000 A 
ATOM     37  C   LIG    1       14.471  68.403 -14.475  0.00  0.00    +0.003 A 
ATOM     38  C   LIG    1       14.726  67.106 -14.184  0.00  0.00    +0.037 A 
BRANCH  26  27
ATOM     27  C   LIG    1       13.287  70.450 -14.286  0.00  0.00    +0.000 C 
ATOM     28  C   LIG    1       12.567  70.929 -15.164  0.00  0.00    +0.000 C 
BRANCH  28  29
ATOM     29  C   LIG    1       11.649  70.179 -15.971  0.00  0.00    +0.006 A 
ATOM     30  C   LIG    1       11.826  69.502 -17.118  0.00  0.00    +0.042 A 
ATOM     31  C   LIG    1       10.848  68.827 -17.783  0.00  0.00    +0.199 A 
ATOM     32  O   LIG    1       11.108  68.145 -18.973  0.00  0.00    -0.286 OA
ATOM     33  C   LIG    1        9.587  68.820 -17.265  0.00  0.00    +0.084 A 
ATOM     34  C   LIG    1        9.346  69.494 -16.094  0.00  0.00    +0.199 A 
ATOM     35  O   LIG    1        8.031  69.472 -15.580  0.00  0.00    -0.286 OA
ATOM     36  C   LIG    1       10.339  70.154 -15.462  0.00  0.00    +0.042 A 
ENDBRANCH  28  29
ENDBRANCH  26  27
ENDBRANCH  22  23
ENDBRANCH  21  22
TORSDOF 8
ENDMDL
MODEL 8
REMARK VINA RESULT:      -7.5     23.740     27.408
REMARK  Name = 
REMARK                            x       y       z     vdW  Elec       q    Type
REMARK                         _______ _______ _______ _____ _____    ______ ____
ROOT
ATOM     14  C   LIG    1       15.055  65.430 -13.101  0.00  0.00    +0.195 C 
ATOM     15  C   LIG    1       15.045  65.835 -11.450  0.00  0.00    +0.216 C 
ATOM     16  O   LIG    1       14.878  64.479 -10.868  0.00  0.00    -0.218 OA
ATOM     17  C   LIG    1       16.663  65.938 -11.045  0.00  0.00    +0.221 C 
ATOM     18  O   LIG    1       17.400  65.180 -12.058  0.00  0.00    -0.217 OA
ATOM     19  C   LIG    1       16.993  67.477 -11.640  0.00  0.00    +0.254 C 
ATOM     20  O   LIG    1       16.017  68.134 -10.748  0.00  0.00    -0.213 OA
ATOM     21  C   LIG    1       16.187  67.567 -13.132  0.00  0.00    +0.322 C 
ATOM     39  O   LIG    1       16.279  66.143 -13.524  0.00  0.00    -0.315 OA
ENDROOT
BRANCH  14  13
ATOM     13  C   LIG    1       15.723  63.991 -13.134  0.00  0.00    +0.241 C 
BRANCH  13  12
ATOM     12  O   LIG    1       15.846  63.261 -14.141  0.00  0.00    -0.443 OA
BRANCH  12   2
ATOM      1  O   LIG    1       15.581  61.378 -12.804  0.00  0.00    -0.245 OA
ATOM      2  C   LIG    1       15.803  61.875 -13.938  0.00  0.00    +0.341 C 
BRANCH   2   3
ATOM      3  C   LIG    1       16.027  61.017 -15.101  0.00  0.00    +0.082 A 
ATOM      4  C   LIG    1       17.175  60.938 -15.816  0.00  0.00    +0.052 A 
ATOM      5  C   LIG    1       17.327  60.091 -16.926  0.00  0.00    +0.238 A 
ATOM      6  O   LIG    1       18.511  60.050 -17.615  0.00  0.00    -0.283 OA
ATOM      7  C   LIG    1       16.252  59.318 -17.285  0.00  0.00    +0.273 A 
ATOM      8  O   LIG    1       16.358  58.475 -18.367  0.00  0.00    -0.280 OA
ATOM      9  C   LIG    1       15.069  59.372 -16.581  0.00  0.00    +0.238 A 
ATOM     10  O   LIG    1       14.015  58.578 -16.978  0.00  0.00    -0.283 OA
ATOM     11  C   LIG    1       14.962  60.233 -15.481  0.00  0.00    +0.052 A 
ENDBRANCH   2   3
ENDBRANCH  12   2
ENDBRANCH  13  12
ENDBRANCH  14  13
BRANCH  21  22
ATOM     22  O   LIG    1       14.742  67.664 -12.713  0.00  0.00    -0.450 OA
BRANCH  22  23
ATOM     23  C   LIG    1       13.883  68.439 -13.393  0.00  0.00    +0.141 A 
ATOM     24  C   LIG    1       12.592  67.945 -13.634  0.00  0.00    +0.037 A 
ATOM     25  C   LIG    1       11.799  68.792 -14.321  0.00  0.00    +0.003 A 
ATOM     26  C   LIG    1       12.066  70.008 -14.793  0.00  0.00    +0.000 A 
ATOM     37  C   LIG    1       13.388  70.444 -14.514  0.00  0.00    +0.003 A 
ATOM     38  C   LIG    1       14.256  69.663 -13.831  0.00  0.00    +0.037 A 
BRANCH  26  27
ATOM     27  C   LIG    1       11.302  70.962 -15.520  0.00  0.00    +0.000 C 
ATOM     28  C   LIG    1       10.588  71.873 -15.095  0.00  0.00    +0.000 C 
BRANCH  28  29
ATOM     29  C   LIG    1       10.374  72.168 -13.709  0.00  0.00    +0.006 A 
ATOM     30  C   LIG    1        9.616  71.562 -12.780  0.00  0.00    +0.042 A 
ATOM     31  C   LIG    1        9.507  71.960 -11.483  0.00  0.00    +0.199 A 
ATOM     32  O   LIG    1        8.697  71.278 -10.573  0.00  0.00    -0.286 OA
ATOM     33  C   LIG    1       10.212  73.052 -11.069  0.00  0.00    +0.084 A 
ATOM     34  C   LIG    1       11.005  73.712 -11.975  0.00  0.00    +0.199 A 
ATOM     35  O   LIG    1       11.724  74.840 -11.522  0.00  0.00    -0.286 OA
ATOM     36  C   LIG    1       11.088  73.291 -13.253  0.00  0.00    +0.042 A 
ENDBRANCH  28  29
ENDBRANCH  26  27
ENDBRANCH  22  23
ENDBRANCH  21  22
TORSDOF 8
ENDMDL
MODEL 9
REMARK VINA RESULT:      -7.5     24.984     32.191
REMARK  Name = 
REMARK                            x       y       z     vdW  Elec       q    Type
REMARK                         _______ _______ _______ _____ _____    ______ ____
ROOT
ATOM     14  C   LIG    1       31.029  58.637  -8.647  0.00  0.00    +0.195 C 
ATOM     15  C   LIG    1       30.590  60.272  -8.803  0.00  0.00    +0.216 C 
ATOM     16  O   LIG    1       29.112  60.131  -8.761  0.00  0.00    -0.218 OA
ATOM     17  C   LIG    1       30.694  60.873  -7.247  0.00  0.00    +0.221 C 
ATOM     18  O   LIG    1       30.615  59.723  -6.344  0.00  0.00    -0.217 OA
ATOM     19  C   LIG    1       32.358  61.107  -7.159  0.00  0.00    +0.254 C 
ATOM     20  O   LIG    1       32.376  62.075  -8.274  0.00  0.00    -0.213 OA
ATOM     21  C   LIG    1       33.046  59.742  -7.898  0.00  0.00    +0.322 C 
ATOM     39  O   LIG    1       32.009  58.748  -7.545  0.00  0.00    -0.315 OA
ENDROOT
BRANCH  14  13
ATOM     13  C   LIG    1       29.882  58.021  -7.740  0.00  0.00    +0.241 C 
BRANCH  13  12
ATOM     12  O   LIG    1       29.347  56.901  -7.891  0.00  0.00    -0.443 OA
BRANCH  12   2
ATOM      1  O   LIG    1       28.046  56.811  -9.814  0.00  0.00    -0.245 OA
ATOM      2  C   LIG    1       28.116  56.861  -8.559  0.00  0.00    +0.341 C 
BRANCH   2   3
ATOM      3  C   LIG    1       26.904  56.879  -7.741  0.00  0.00    +0.082 A 
ATOM      4  C   LIG    1       26.470  57.924  -6.996  0.00  0.00    +0.052 A 
ATOM      5  C   LIG    1       25.294  57.878  -6.229  0.00  0.00    +0.238 A 
ATOM      6  O   LIG    1       24.899  58.965  -5.492  0.00  0.00    -0.283 OA
ATOM      7  C   LIG    1       24.568  56.714  -6.251  0.00  0.00    +0.273 A 
ATOM      8  O   LIG    1       23.410  56.628  -5.514  0.00  0.00    -0.280 OA
ATOM      9  C   LIG    1       24.980  55.632  -6.997  0.00  0.00    +0.238 A 
ATOM     10  O   LIG    1       24.219  54.483  -6.989  0.00  0.00    -0.283 OA
ATOM     11  C   LIG    1       26.161  55.723  -7.746  0.00  0.00    +0.052 A 
ENDBRANCH   2   3
ENDBRANCH  12   2
ENDBRANCH  13  12
ENDBRANCH  14  13
BRANCH  21  22
ATOM     22  O   LIG    1       32.744  59.978  -9.356  0.00  0.00    -0.450 OA
BRANCH  22  23
ATOM     23  C   LIG    1       33.663  59.714 -10.297  0.00  0.00    +0.141 A 
ATOM     24  C   LIG    1       34.796  58.974  -9.928  0.00  0.00    +0.037 A 
ATOM     25  C   LIG    1       35.664  58.755 -10.938  0.00  0.00    +0.003 A 
ATOM     26  C   LIG    1       35.594  59.138 -12.211  0.00  0.00    +0.000 A 
ATOM     37  C   LIG    1       34.423  59.881 -12.515  0.00  0.00    +0.003 A 
ATOM     38  C   LIG    1       33.496  60.151 -11.566  0.00  0.00    +0.037 A 
BRANCH  26  27
ATOM     27  C   LIG    1       36.449  58.956 -13.332  0.00  0.00    +0.000 C 
ATOM     28  C   LIG    1       36.662  57.936 -13.991  0.00  0.00    +0.000 C 
BRANCH  28  29
ATOM     29  C   LIG    1       36.056  56.660 -13.746  0.00  0.00    +0.006 A 
ATOM     30  C   LIG    1       34.842  56.179 -14.062  0.00  0.00    +0.042 A 
ATOM     31  C   LIG    1       34.396  54.929 -13.759  0.00  0.00    +0.199 A 
ATOM     32  O   LIG    1       33.118  54.500 -14.121  0.00  0.00    -0.286 OA
ATOM     33  C   LIG    1       35.225  54.082 -13.085  0.00  0.00    +0.084 A 
ATOM     34  C   LIG    1       36.479  54.518 -12.735  0.00  0.00    +0.199 A 
ATOM     35  O   LIG    1       37.318  53.621 -12.038  0.00  0.00    -0.286 OA
ATOM     36  C   LIG    1       36.888  55.764 -13.051  0.00  0.00    +0.042 A 
ENDBRANCH  28  29
ENDBRANCH  26  27
ENDBRANCH  22  23
ENDBRANCH  21  22
TORSDOF 8
ENDMDL
MODEL 10
REMARK VINA RESULT:      -7.4     15.377     19.271
REMARK  Name = 
REMARK                            x       y       z     vdW  Elec       q    Type
REMARK                         _______ _______ _______ _____ _____    ______ ____
ROOT
ATOM     14  C   LIG    1       20.143  66.308  14.827  0.00  0.00    +0.195 C 
ATOM     15  C   LIG    1       20.482  66.317  13.161  0.00  0.00    +0.216 C 
ATOM     16  O   LIG    1       20.960  64.920  13.004  0.00  0.00    -0.218 OA
ATOM     17  C   LIG    1       19.004  66.017  12.442  0.00  0.00    +0.221 C 
ATOM     18  O   LIG    1       18.160  65.387  13.460  0.00  0.00    -0.217 OA
ATOM     19  C   LIG    1       18.340  67.561  12.533  0.00  0.00    +0.254 C 
ATOM     20  O   LIG    1       19.400  68.167  11.702  0.00  0.00    -0.213 OA
ATOM     21  C   LIG    1       18.759  68.143  14.073  0.00  0.00    +0.322 C 
ATOM     39  O   LIG    1       18.770  66.856  14.804  0.00  0.00    -0.315 OA
ENDROOT
BRANCH  14  13
ATOM     13  C   LIG    1       19.685  64.817  15.113  0.00  0.00    +0.241 C 
BRANCH  13  12
ATOM     12  O   LIG    1       19.238  64.380  16.195  0.00  0.00    -0.443 OA
BRANCH  12   2
ATOM      1  O   LIG    1       18.974  62.275  15.245  0.00  0.00    -0.245 OA
ATOM      2  C   LIG    1       18.951  63.010  16.266  0.00  0.00    +0.341 C 
BRANCH   2   3
ATOM      3  C   LIG    1       18.621  62.457  17.580  0.00  0.00    +0.082 A 
ATOM      4  C   LIG    1       19.292  62.702  18.730  0.00  0.00    +0.052 A 
ATOM      5  C   LIG    1       18.925  62.138  19.964  0.00  0.00    +0.238 A 
ATOM      6  O   LIG    1       19.639  62.419  21.099  0.00  0.00    -0.283 OA
ATOM      7  C   LIG    1       17.834  61.307  19.979  0.00  0.00    +0.273 A 
ATOM      8  O   LIG    1       17.440  60.734  21.167  0.00  0.00    -0.280 OA
ATOM      9  C   LIG    1       17.127  61.036  18.828  0.00  0.00    +0.238 A 
ATOM     10  O   LIG    1       16.038  60.194  18.892  0.00  0.00    -0.283 OA
ATOM     11  C   LIG    1       17.531  61.620  17.621  0.00  0.00    +0.052 A 
ENDBRANCH   2   3
ENDBRANCH  12   2
ENDBRANCH  13  12
ENDBRANCH  14  13
BRANCH  21  22
ATOM     22  O   LIG    1       20.235  68.411  13.927  0.00  0.00    -0.450 OA
BRANCH  22  23
ATOM     23  C   LIG    1       20.781  69.524  14.439  0.00  0.00    +0.141 A 
ATOM     24  C   LIG    1       21.653  69.393  15.530  0.00  0.00    +0.037 A 
ATOM     25  C   LIG    1       22.156  70.563  15.976  0.00  0.00    +0.003 A 
ATOM     26  C   LIG    1       21.943  71.800  15.532  0.00  0.00    +0.000 A 
ATOM     37  C   LIG    1       21.052  71.859  14.428  0.00  0.00    +0.003 A 
ATOM     38  C   LIG    1       20.497  70.737  13.913  0.00  0.00    +0.037 A 
BRANCH  26  27
ATOM     27  C   LIG    1       22.422  73.077  15.934  0.00  0.00    +0.000 C 
ATOM     28  C   LIG    1       23.426  73.685  15.557  0.00  0.00    +0.000 C 
BRANCH  28  29
ATOM     29  C   LIG    1       24.361  73.200  14.584  0.00  0.00    +0.006 A 
ATOM     30  C   LIG    1       24.382  73.306  13.245  0.00  0.00    +0.042 A 
ATOM     31  C   LIG    1       25.348  72.786  12.438  0.00  0.00    +0.199 A 
ATOM     32  O   LIG    1       25.301  72.936  11.051  0.00  0.00    -0.286 OA
ATOM     33  C   LIG    1       26.382  72.104  13.007  0.00  0.00    +0.084 A 
ATOM     34  C   LIG    1       26.415  71.965  14.372  0.00  0.00    +0.199 A 
ATOM     35  O   LIG    1       27.497  71.254  14.936  0.00  0.00    -0.286 OA
ATOM     36  C   LIG    1       25.441  72.492  15.142  0.00  0.00    +0.042 A 
ENDBRANCH  28  29
ENDBRANCH  26  27
ENDBRANCH  22  23
ENDBRANCH  21  22
TORSDOF 8
ENDMDL
