MODEL 1
REMARK VINA RESULT:      -6.0      0.000      0.000
REMARK  Name = 
REMARK                            x       y       z     vdW  Elec       q    Type
REMARK                         _______ _______ _______ _____ _____    ______ ____
ROOT
ATOM      7  C   LIG    1       20.334  70.067  13.829  0.00  0.00    +0.000 C 
ATOM      8  C   LIG    1       20.489  71.348  14.059  0.00  0.00    +0.000 C 
ENDROOT
BRANCH   8   9
ATOM      9  C   LIG    1       21.601  71.922  14.802  0.00  0.00    +0.006 A 
ATOM     10  C   LIG    1       22.432  72.906  14.312  0.00  0.00    +0.042 A 
ATOM     11  C   LIG    1       23.481  73.407  15.086  0.00  0.00    +0.199 A 
ATOM     12  O   LIG    1       24.290  74.395  14.556  0.00  0.00    -0.286 OA
ATOM     13  C   LIG    1       23.704  72.926  16.360  0.00  0.00    +0.084 A 
ATOM     14  C   LIG    1       22.876  71.941  16.854  0.00  0.00    +0.199 A 
ATOM     15  O   LIG    1       23.098  71.453  18.133  0.00  0.00    -0.286 OA
ATOM     16  C   LIG    1       21.839  71.452  16.074  0.00  0.00    +0.042 A 
ENDBRANCH   8   9
BRANCH   7   6
ATOM      3  C   LIG    1       17.108  68.529  11.527  0.00  0.00    +0.139 A 
ATOM      4  C   LIG    1       17.454  67.941  12.727  0.00  0.00    +0.037 A 
ATOM      5  C   LIG    1       18.493  68.411  13.501  0.00  0.00    +0.003 A 
ATOM      6  C   LIG    1       19.226  69.498  13.090  0.00  0.00    +0.000 A 
ATOM     17  C   LIG    1       18.891  70.095  11.892  0.00  0.00    +0.003 A 
ATOM     18  C   LIG    1       17.845  69.614  11.123  0.00  0.00    +0.037 A 
BRANCH   3   2
ATOM      1  C   LIG    1       15.607  66.701  10.927  0.00  0.00    +0.252 C 
ATOM      2  O   LIG    1       16.043  68.034  10.751  0.00  0.00    -0.471 OA
ENDBRANCH   3   2
ENDBRANCH   7   6
TORSDOF 3
ENDMDL
MODEL 2
REMARK VINA RESULT:      -5.7     28.147     29.847
REMARK  Name = 
REMARK                            x       y       z     vdW  Elec       q    Type
REMARK                         _______ _______ _______ _____ _____    ______ ____
ROOT
ATOM      7  C   LIG    1       30.921  79.768 -11.778  0.00  0.00    +0.000 C 
ATOM      8  C   LIG    1       29.842  79.042 -11.948  0.00  0.00    +0.000 C 
ENDROOT
BRANCH   8   9
ATOM      9  C   LIG    1       28.483  79.534 -11.774  0.00  0.00    +0.006 A 
ATOM     10  C   LIG    1       27.558  79.623 -12.791  0.00  0.00    +0.042 A 
ATOM     11  C   LIG    1       26.270  80.106 -12.545  0.00  0.00    +0.199 A 
ATOM     12  O   LIG    1       25.372  80.178 -13.594  0.00  0.00    -0.286 OA
ATOM     13  C   LIG    1       25.901  80.504 -11.277  0.00  0.00    +0.084 A 
ATOM     14  C   LIG    1       26.824  80.418 -10.257  0.00  0.00    +0.199 A 
ATOM     15  O   LIG    1       26.458  80.818  -8.981  0.00  0.00    -0.286 OA
ATOM     16  C   LIG    1       28.099  79.936 -10.515  0.00  0.00    +0.042 A 
ENDBRANCH   8   9
BRANCH   7   6
ATOM      3  C   LIG    1       34.857  78.324 -12.474  0.00  0.00    +0.139 A 
ATOM      4  C   LIG    1       34.417  78.564 -11.188  0.00  0.00    +0.037 A 
ATOM      5  C   LIG    1       33.148  79.032 -10.923  0.00  0.00    +0.003 A 
ATOM      6  C   LIG    1       32.271  79.277 -11.951  0.00  0.00    +0.000 A 
ATOM     17  C   LIG    1       32.699  79.040 -13.242  0.00  0.00    +0.003 A 
ATOM     18  C   LIG    1       33.975  78.570 -13.497  0.00  0.00    +0.037 A 
BRANCH   3   2
ATOM      1  C   LIG    1       37.185  78.081 -11.783  0.00  0.00    +0.252 C 
ATOM      2  O   LIG    1       36.158  77.845 -12.724  0.00  0.00    -0.471 OA
ENDBRANCH   3   2
ENDBRANCH   7   6
TORSDOF 3
ENDMDL
MODEL 3
REMARK VINA RESULT:      -5.7     28.173     29.911
REMARK  Name = 
REMARK                            x       y       z     vdW  Elec       q    Type
REMARK                         _______ _______ _______ _____ _____    ______ ____
ROOT
ATOM      7  C   LIG    1       30.832  79.833 -11.829  0.00  0.00    +0.000 C 
ATOM      8  C   LIG    1       29.753  79.088 -11.838  0.00  0.00    +0.000 C 
ENDROOT
BRANCH   8   9
ATOM      9  C   LIG    1       28.400  79.596 -11.668  0.00  0.00    +0.006 A 
ATOM     10  C   LIG    1       27.882  80.026 -10.465  0.00  0.00    +0.042 A 
ATOM     11  C   LIG    1       26.571  80.502 -10.381  0.00  0.00    +0.199 A 
ATOM     12  O   LIG    1       26.091  80.925  -9.155  0.00  0.00    -0.286 OA
ATOM     13  C   LIG    1       25.770  80.550 -11.503  0.00  0.00    +0.084 A 
ATOM     14  C   LIG    1       26.283  80.121 -12.708  0.00  0.00    +0.199 A 
ATOM     15  O   LIG    1       25.481  80.167 -13.837  0.00  0.00    -0.286 OA
ATOM     16  C   LIG    1       27.586  79.650 -12.777  0.00  0.00    +0.042 A 
ENDBRANCH   8   9
BRANCH   7   6
ATOM      3  C   LIG    1       34.752  78.341 -12.514  0.00  0.00    +0.139 A 
ATOM      4  C   LIG    1       34.313  78.588 -11.229  0.00  0.00    +0.037 A 
ATOM      5  C   LIG    1       33.049  79.072 -10.968  0.00  0.00    +0.003 A 
ATOM      6  C   LIG    1       32.177  79.326 -11.999  0.00  0.00    +0.000 A 
ATOM     17  C   LIG    1       32.605  79.082 -13.288  0.00  0.00    +0.003 A 
ATOM     18  C   LIG    1       33.876  78.596 -13.539  0.00  0.00    +0.037 A 
BRANCH   3   2
ATOM      1  C   LIG    1       37.070  78.051 -11.806  0.00  0.00    +0.252 C 
ATOM      2  O   LIG    1       36.047  77.846 -12.761  0.00  0.00    -0.471 OA
ENDBRANCH   3   2
ENDBRANCH   7   6
TORSDOF 3
ENDMDL
MODEL 4
REMARK VINA RESULT:      -5.6     37.280     43.359
REMARK  Name = 
REMARK                            x       y       z     vdW  Elec       q    Type
REMARK                         _______ _______ _______ _____ _____    ______ ____
ROOT
ATOM      7  C   LIG    1        8.181  42.091 -15.407  0.00  0.00    +0.000 C 
ATOM      8  C   LIG    1        7.447  41.116 -14.924  0.00  0.00    +0.000 C 
ENDROOT
BRANCH   8   9
ATOM      9  C   LIG    1        7.295  39.812 -15.552  0.00  0.00    +0.006 A 
ATOM     10  C   LIG    1        6.702  38.727 -14.944  0.00  0.00    +0.042 A 
ATOM     11  C   LIG    1        6.592  37.505 -15.613  0.00  0.00    +0.199 A 
ATOM     12  O   LIG    1        5.990  36.442 -14.966  0.00  0.00    -0.286 OA
ATOM     13  C   LIG    1        7.077  37.363 -16.897  0.00  0.00    +0.084 A 
ATOM     14  C   LIG    1        7.671  38.445 -17.509  0.00  0.00    +0.199 A 
ATOM     15  O   LIG    1        8.160  38.307 -18.798  0.00  0.00    -0.286 OA
ATOM     16  C   LIG    1        7.774  39.653 -16.833  0.00  0.00    +0.042 A 
ENDBRANCH   8   9
BRANCH   7   6
ATOM      3  C   LIG    1        8.516  45.836 -13.426  0.00  0.00    +0.139 A 
ATOM      4  C   LIG    1        9.130  45.632 -14.645  0.00  0.00    +0.037 A 
ATOM      5  C   LIG    1        9.044  44.432 -15.317  0.00  0.00    +0.003 A 
ATOM      6  C   LIG    1        8.331  43.387 -14.781  0.00  0.00    +0.000 A 
ATOM     17  C   LIG    1        7.712  43.579 -13.563  0.00  0.00    +0.003 A 
ATOM     18  C   LIG    1        7.805  44.788 -12.897  0.00  0.00    +0.037 A 
BRANCH   3   2
ATOM      1  C   LIG    1        7.459  47.654 -12.188  0.00  0.00    +0.252 C 
ATOM      2  O   LIG    1        8.614  47.070 -12.755  0.00  0.00    -0.471 OA
ENDBRANCH   3   2
ENDBRANCH   7   6
TORSDOF 3
ENDMDL
MODEL 5
REMARK VINA RESULT:      -5.6     25.283     26.971
REMARK  Name = 
REMARK                            x       y       z     vdW  Elec       q    Type
REMARK                         _______ _______ _______ _____ _____    ______ ____
ROOT
ATOM      7  C   LIG    1       25.299  79.930  -9.924  0.00  0.00    +0.000 C 
ATOM      8  C   LIG    1       25.086  79.770 -11.209  0.00  0.00    +0.000 C 
ENDROOT
BRANCH   8   9
ATOM      9  C   LIG    1       25.362  80.780 -12.220  0.00  0.00    +0.006 A 
ATOM     10  C   LIG    1       25.728  80.493 -13.517  0.00  0.00    +0.042 A 
ATOM     11  C   LIG    1       25.977  81.519 -14.433  0.00  0.00    +0.199 A 
ATOM     12  O   LIG    1       26.341  81.188 -15.725  0.00  0.00    -0.286 OA
ATOM     13  C   LIG    1       25.860  82.840 -14.054  0.00  0.00    +0.084 A 
ATOM     14  C   LIG    1       25.495  83.132 -12.757  0.00  0.00    +0.199 A 
ATOM     15  O   LIG    1       25.377  84.458 -12.372  0.00  0.00    -0.286 OA
ATOM     16  C   LIG    1       25.251  82.103 -11.859  0.00  0.00    +0.042 A 
ENDBRANCH   8   9
BRANCH   7   6
ATOM      3  C   LIG    1       24.413  76.872  -7.109  0.00  0.00    +0.139 A 
ATOM      4  C   LIG    1       25.034  78.036  -6.705  0.00  0.00    +0.037 A 
ATOM      5  C   LIG    1       25.338  79.050  -7.588  0.00  0.00    +0.003 A 
ATOM      6  C   LIG    1       25.023  78.925  -8.920  0.00  0.00    +0.000 A 
ATOM     17  C   LIG    1       24.401  77.766  -9.336  0.00  0.00    +0.003 A 
ATOM     18  C   LIG    1       24.101  76.755  -8.441  0.00  0.00    +0.037 A 
BRANCH   3   2
ATOM      1  C   LIG    1       24.173  76.109  -4.804  0.00  0.00    +0.252 C 
ATOM      2  O   LIG    1       24.110  75.847  -6.191  0.00  0.00    -0.471 OA
ENDBRANCH   3   2
ENDBRANCH   7   6
TORSDOF 3
ENDMDL
MODEL 6
REMARK VINA RESULT:      -5.4      1.351      7.926
REMARK  Name = 
REMARK                            x       y       z     vdW  Elec       q    Type
REMARK                         _______ _______ _______ _____ _____    ______ ____
ROOT
ATOM      7  C   LIG    1       20.083  69.810  13.843  0.00  0.00    +0.000 C 
ATOM      8  C   LIG    1       19.474  70.263  12.774  0.00  0.00    +0.000 C 
ENDROOT
BRANCH   8   9
ATOM      9  C   LIG    1       18.524  69.497  11.981  0.00  0.00    +0.006 A 
ATOM     10  C   LIG    1       17.506  68.738  12.516  0.00  0.00    +0.042 A 
ATOM     11  C   LIG    1       16.632  68.030  11.688  0.00  0.00    +0.199 A 
ATOM     12  O   LIG    1       15.623  67.281  12.266  0.00  0.00    -0.286 OA
ATOM     13  C   LIG    1       16.772  68.078  10.316  0.00  0.00    +0.084 A 
ATOM     14  C   LIG    1       17.789  68.835   9.777  0.00  0.00    +0.199 A 
ATOM     15  O   LIG    1       17.934  68.885   8.399  0.00  0.00    -0.286 OA
ATOM     16  C   LIG    1       18.650  69.533  10.610  0.00  0.00    +0.042 A 
ENDBRANCH   8   9
BRANCH   7   6
ATOM      3  C   LIG    1       22.838  72.193  16.033  0.00  0.00    +0.139 A 
ATOM      4  C   LIG    1       22.537  70.912  16.449  0.00  0.00    +0.037 A 
ATOM      5  C   LIG    1       21.648  70.110  15.765  0.00  0.00    +0.003 A 
ATOM      6  C   LIG    1       21.028  70.573  14.630  0.00  0.00    +0.000 A 
ATOM     17  C   LIG    1       21.322  71.852  14.204  0.00  0.00    +0.003 A 
ATOM     18  C   LIG    1       22.215  72.649  14.897  0.00  0.00    +0.037 A 
BRANCH   3   2
ATOM      1  C   LIG    1       24.471  74.006  16.067  0.00  0.00    +0.252 C 
ATOM      2  O   LIG    1       23.749  72.998  16.744  0.00  0.00    -0.471 OA
ENDBRANCH   3   2
ENDBRANCH   7   6
TORSDOF 3
ENDMDL
MODEL 7
REMARK VINA RESULT:      -5.3     19.622     21.185
REMARK  Name = 
REMARK                            x       y       z     vdW  Elec       q    Type
REMARK                         _______ _______ _______ _____ _____    ______ ____
ROOT
ATOM      7  C   LIG    1        8.793  55.413  22.086  0.00  0.00    +0.000 C 
ATOM      8  C   LIG    1        8.760  55.407  23.397  0.00  0.00    +0.000 C 
ENDROOT
BRANCH   8   9
ATOM      9  C   LIG    1        9.881  55.774  24.250  0.00  0.00    +0.006 A 
ATOM     10  C   LIG    1        9.816  55.838  25.625  0.00  0.00    +0.042 A 
ATOM     11  C   LIG    1       10.936  56.200  26.377  0.00  0.00    +0.199 A 
ATOM     12  O   LIG    1       10.828  56.251  27.755  0.00  0.00    -0.286 OA
ATOM     13  C   LIG    1       12.131  56.500  25.755  0.00  0.00    +0.084 A 
ATOM     14  C   LIG    1       12.200  56.437  24.380  0.00  0.00    +0.199 A 
ATOM     15  O   LIG    1       13.398  56.739  23.752  0.00  0.00    -0.286 OA
ATOM     16  C   LIG    1       11.080  56.078  23.646  0.00  0.00    +0.042 A 
ENDBRANCH   8   9
BRANCH   7   6
ATOM      3  C   LIG    1        5.429  54.494  19.657  0.00  0.00    +0.139 A 
ATOM      4  C   LIG    1        6.528  53.659  19.674  0.00  0.00    +0.037 A 
ATOM      5  C   LIG    1        7.638  53.925  20.448  0.00  0.00    +0.003 A 
ATOM      6  C   LIG    1        7.678  55.047  21.238  0.00  0.00    +0.000 A 
ATOM     17  C   LIG    1        6.585  55.889  21.231  0.00  0.00    +0.003 A 
ATOM     18  C   LIG    1        5.477  55.613  20.450  0.00  0.00    +0.037 A 
BRANCH   3   2
ATOM      1  C   LIG    1        4.223  52.966  18.185  0.00  0.00    +0.252 C 
ATOM      2  O   LIG    1        4.305  54.205  18.859  0.00  0.00    -0.471 OA
ENDBRANCH   3   2
ENDBRANCH   7   6
TORSDOF 3
ENDMDL
MODEL 8
REMARK VINA RESULT:      -5.3     37.321     43.376
REMARK  Name = 
REMARK                            x       y       z     vdW  Elec       q    Type
REMARK                         _______ _______ _______ _____ _____    ______ ____
ROOT
ATOM      7  C   LIG    1        8.455  42.525 -15.713  0.00  0.00    +0.000 C 
ATOM      8  C   LIG    1        7.406  41.798 -16.014  0.00  0.00    +0.000 C 
ENDROOT
BRANCH   8   9
ATOM      9  C   LIG    1        7.437  40.619 -16.867  0.00  0.00    +0.006 A 
ATOM     10  C   LIG    1        7.492  40.663 -18.243  0.00  0.00    +0.042 A 
ATOM     11  C   LIG    1        7.520  39.485 -18.994  0.00  0.00    +0.199 A 
ATOM     12  O   LIG    1        7.576  39.574 -20.373  0.00  0.00    -0.286 OA
ATOM     13  C   LIG    1        7.493  38.255 -18.370  0.00  0.00    +0.084 A 
ATOM     14  C   LIG    1        7.438  38.207 -16.994  0.00  0.00    +0.199 A 
ATOM     15  O   LIG    1        7.410  36.972 -16.364  0.00  0.00    -0.286 OA
ATOM     16  C   LIG    1        7.410  39.384 -16.261  0.00  0.00    +0.042 A 
ENDBRANCH   8   9
BRANCH   7   6
ATOM      3  C   LIG    1        8.453  46.061 -13.356  0.00  0.00    +0.139 A 
ATOM      4  C   LIG    1        7.846  44.912 -12.892  0.00  0.00    +0.037 A 
ATOM      5  C   LIG    1        7.826  43.746 -13.628  0.00  0.00    +0.003 A 
ATOM      6  C   LIG    1        8.421  43.697 -14.865  0.00  0.00    +0.000 A 
ATOM     17  C   LIG    1        9.033  44.840 -15.339  0.00  0.00    +0.003 A 
ATOM     18  C   LIG    1        9.047  46.005 -14.592  0.00  0.00    +0.037 A 
BRANCH   3   2
ATOM      1  C   LIG    1        7.294  47.645 -11.906  0.00  0.00    +0.252 C 
ATOM      2  O   LIG    1        8.464  47.243 -12.589  0.00  0.00    -0.471 OA
ENDBRANCH   3   2
ENDBRANCH   7   6
TORSDOF 3
ENDMDL
MODEL 9
REMARK VINA RESULT:      -5.2     47.315     48.948
REMARK  Name = 
REMARK                            x       y       z     vdW  Elec       q    Type
REMARK                         _______ _______ _______ _____ _____    ______ ____
ROOT
ATOM      7  C   LIG    1       26.118  71.565 -33.969  0.00  0.00    +0.000 C 
ATOM      8  C   LIG    1       25.363  70.582 -34.397  0.00  0.00    +0.000 C 
ENDROOT
BRANCH   8   9
ATOM      9  C   LIG    1       25.503  69.194 -33.981  0.00  0.00    +0.006 A 
ATOM     10  C   LIG    1       24.492  68.453 -33.410  0.00  0.00    +0.042 A 
ATOM     11  C   LIG    1       24.704  67.124 -33.036  0.00  0.00    +0.199 A 
ATOM     12  O   LIG    1       23.662  66.415 -32.467  0.00  0.00    -0.286 OA
ATOM     13  C   LIG    1       25.932  66.528 -33.234  0.00  0.00    +0.084 A 
ATOM     14  C   LIG    1       26.947  67.265 -33.804  0.00  0.00    +0.199 A 
ATOM     15  O   LIG    1       28.183  66.671 -34.003  0.00  0.00    -0.286 OA
ATOM     16  C   LIG    1       26.723  68.584 -34.170  0.00  0.00    +0.042 A 
ENDBRANCH   8   9
BRANCH   7   6
ATOM      3  C   LIG    1       25.743  75.562 -35.365  0.00  0.00    +0.139 A 
ATOM      4  C   LIG    1       25.561  75.268 -34.028  0.00  0.00    +0.037 A 
ATOM      5  C   LIG    1       25.675  73.984 -33.539  0.00  0.00    +0.003 A 
ATOM      6  C   LIG    1       25.977  72.944 -34.384  0.00  0.00    +0.000 A 
ATOM     17  C   LIG    1       26.161  73.225 -35.722  0.00  0.00    +0.003 A 
ATOM     18  C   LIG    1       26.045  74.517 -36.203  0.00  0.00    +0.037 A 
BRANCH   3   2
ATOM      1  C   LIG    1       26.732  77.754 -35.776  0.00  0.00    +0.252 C 
ATOM      2  O   LIG    1       25.624  76.880 -35.846  0.00  0.00    -0.471 OA
ENDBRANCH   3   2
ENDBRANCH   7   6
TORSDOF 3
ENDMDL
MODEL 10
REMARK VINA RESULT:      -5.1     45.087     48.618
REMARK  Name = 
REMARK                            x       y       z     vdW  Elec       q    Type
REMARK                         _______ _______ _______ _____ _____    ______ ____
ROOT
ATOM      7  C   LIG    1       22.706  38.742 -23.545  0.00  0.00    +0.000 C 
ATOM      8  C   LIG    1       22.839  39.866 -22.884  0.00  0.00    +0.000 C 
ENDROOT
BRANCH   8   9
ATOM      9  C   LIG    1       24.036  40.255 -22.154  0.00  0.00    +0.006 A 
ATOM     10  C   LIG    1       25.269  39.661 -22.319  0.00  0.00    +0.042 A 
ATOM     11  C   LIG    1       26.374  40.090 -21.579  0.00  0.00    +0.199 A 
ATOM     12  O   LIG    1       27.592  39.467 -21.777  0.00  0.00    -0.286 OA
ATOM     13  C   LIG    1       26.251  41.120 -20.669  0.00  0.00    +0.084 A 
ATOM     14  C   LIG    1       25.021  41.717 -20.501  0.00  0.00    +0.199 A 
ATOM     15  O   LIG    1       24.892  42.751 -19.586  0.00  0.00    -0.286 OA
ATOM     16  C   LIG    1       23.931  41.280 -21.240  0.00  0.00    +0.042 A 
ENDBRANCH   8   9
BRANCH   7   6
ATOM      3  C   LIG    1       19.173  37.479 -25.543  0.00  0.00    +0.139 A 
ATOM      4  C   LIG    1       19.935  38.510 -26.054  0.00  0.00    +0.037 A 
ATOM      5  C   LIG    1       21.086  38.947 -25.435  0.00  0.00    +0.003 A 
ATOM      6  C   LIG    1       21.514  38.357 -24.270  0.00  0.00    +0.000 A 
ATOM     17  C   LIG    1       20.761  37.324 -23.750  0.00  0.00    +0.003 A 
ATOM     18  C   LIG    1       19.607  36.893 -24.380  0.00  0.00    +0.037 A 
BRANCH   3   2
ATOM      1  C   LIG    1       16.776  37.028 -25.486  0.00  0.00    +0.252 C 
ATOM      2  O   LIG    1       18.000  37.046 -26.191  0.00  0.00    -0.471 OA
ENDBRANCH   3   2
ENDBRANCH   7   6
TORSDOF 3
ENDMDL
