REMARK  Name = 
REMARK                            x       y       z     vdW  Elec       q    Type
REMARK                         _______ _______ _______ _____ _____    ______ ____
ROOT
ATOM     14  C   LIG    1        1.455  -0.627   0.892  0.00  0.00    +0.195 C 
ATOM     15  C   LIG    1        1.016   0.301  -0.463  0.00  0.00    +0.216 C 
ATOM     16  O   LIG    1        2.366   0.723  -0.915  0.00  0.00    -0.218 OA
ATOM     17  C   LIG    1        0.829  -0.823  -1.685  0.00  0.00    +0.221 C 
ATOM     18  O   LIG    1        1.573  -2.017  -1.277  0.00  0.00    -0.217 OA
ATOM     19  C   LIG    1       -0.711  -1.384  -1.303  0.00  0.00    +0.254 C 
ATOM     20  O   LIG    1       -1.340  -0.060  -1.483  0.00  0.00    -0.213 OA
ATOM     21  C   LIG    1       -0.732  -1.530   0.389  0.00  0.00    +0.322 C 
ATOM     39  O   LIG    1        0.694  -1.862   0.604  0.00  0.00    -0.315 OA
ENDROOT
BRANCH  14  13
ATOM     13  C   LIG    1        2.861  -1.243   0.491  0.00  0.00    +0.241 C 
BRANCH  13  12
ATOM     12  O   LIG    1        3.960  -0.649   0.522  0.00  0.00    -0.443 OA
BRANCH  12   2
ATOM      1  O   LIG    1        5.016  -2.571  -0.247  0.00  0.00    -0.245 OA
ATOM      2  C   LIG    1        5.093  -1.372   0.127  0.00  0.00    +0.341 C 
BRANCH   2   3
ATOM      3  C   LIG    1        6.381  -0.680   0.163  0.00  0.00    +0.082 A 
ATOM      4  C   LIG    1        6.577   0.604   0.547  0.00  0.00    +0.052 A 
ATOM      5  C   LIG    1        7.843   1.213   0.559  0.00  0.00    +0.238 A 
ATOM      6  O   LIG    1        7.986   2.517   0.957  0.00  0.00    -0.283 OA
ATOM      7  C   LIG    1        8.914   0.454   0.161  0.00  0.00    +0.273 A 
ATOM      8  O   LIG    1       10.172   1.012   0.158  0.00  0.00    -0.280 OA
ATOM      9  C   LIG    1        8.752  -0.855  -0.236  0.00  0.00    +0.238 A 
ATOM     10  O   LIG    1        9.857  -1.579  -0.628  0.00  0.00    -0.283 OA
ATOM     11  C   LIG    1        7.470  -1.420  -0.233  0.00  0.00    +0.052 A 
ENDBRANCH   2   3
ENDBRANCH  12   2
ENDBRANCH  13  12
ENDBRANCH  14  13
BRANCH  21  22
ATOM     22  O   LIG    1       -0.770  -0.091   0.837  0.00  0.00    -0.450 OA
BRANCH  22  23
ATOM     23  C   LIG    1       -1.928   0.586   0.866  0.00  0.00    +0.141 A 
ATOM     24  C   LIG    1       -3.104  -0.097   0.522  0.00  0.00    +0.037 A 
ATOM     25  C   LIG    1       -4.218   0.662   0.582  0.00  0.00    +0.003 A 
ATOM     26  C   LIG    1       -4.352   1.944   0.916  0.00  0.00    +0.000 A 
ATOM     37  C   LIG    1       -3.124   2.572   1.252  0.00  0.00    +0.003 A 
ATOM     38  C   LIG    1       -1.955   1.891   1.220  0.00  0.00    +0.037 A 
BRANCH  26  27
ATOM     27  C   LIG    1       -5.471   2.816   1.006  0.00  0.00    +0.000 C 
ATOM     28  C   LIG    1       -6.661   2.581   0.783  0.00  0.00    +0.000 C 
BRANCH  28  29
ATOM     29  C   LIG    1       -7.181   1.312   0.366  0.00  0.00    +0.006 A 
ATOM     30  C   LIG    1       -6.571   0.139   0.126  0.00  0.00    +0.042 A 
ATOM     31  C   LIG    1       -7.202  -1.000  -0.271  0.00  0.00    +0.199 A 
ATOM     32  O   LIG    1       -6.499  -2.184  -0.502  0.00  0.00    -0.286 OA
ATOM     33  C   LIG    1       -8.554  -0.976  -0.444  0.00  0.00    +0.084 A 
ATOM     34  C   LIG    1       -9.232   0.195  -0.213  0.00  0.00    +0.199 A 
ATOM     35  O   LIG    1      -10.632   0.194  -0.400  0.00  0.00    -0.286 OA
ATOM     36  C   LIG    1       -8.575   1.306   0.179  0.00  0.00    +0.042 A 
ENDBRANCH  28  29
ENDBRANCH  26  27
ENDBRANCH  22  23
ENDBRANCH  21  22
TORSDOF 8
