REMARK  Name = 
REMARK                            x       y       z     vdW  Elec       q    Type
REMARK                         _______ _______ _______ _____ _____    ______ ____
ROOT
ATOM      9  C   LIG    1        1.939  -1.522  -0.445  0.00  0.00    +0.139 A 
ATOM     10  C   LIG    1        1.374  -1.434   0.808  0.00  0.00    +0.037 A 
ATOM     11  C   LIG    1        0.054  -1.098   1.010  0.00  0.00    +0.003 A 
ATOM     12  C   LIG    1       -0.725  -0.841  -0.110  0.00  0.00    +0.000 A 
ATOM     23  C   LIG    1       -0.167  -0.928  -1.339  0.00  0.00    +0.003 A 
ATOM     24  C   LIG    1        1.148  -1.263  -1.537  0.00  0.00    +0.037 A 
ENDROOT
BRANCH  12  13
ATOM     13  C   LIG    1       -2.123  -0.487   0.148  0.00  0.00    +0.000 C 
ATOM     14  C   LIG    1       -2.999  -0.213  -0.769  0.00  0.00    +0.000 C 
BRANCH  14  15
ATOM     15  C   LIG    1       -4.389   0.138  -0.508  0.00  0.00    +0.006 A 
ATOM     16  C   LIG    1       -5.294   0.423  -1.505  0.00  0.00    +0.042 A 
ATOM     17  C   LIG    1       -6.606   0.753  -1.237  0.00  0.00    +0.199 A 
ATOM     18  O   LIG    1       -7.524   1.042  -2.236  0.00  0.00    -0.286 OA
ATOM     19  C   LIG    1       -7.027   0.801   0.080  0.00  0.00    +0.084 A 
ATOM     20  C   LIG    1       -6.149   0.523   1.083  0.00  0.00    +0.199 A 
ATOM     21  O   LIG    1       -6.595   0.577   2.385  0.00  0.00    -0.286 OA
ATOM     22  C   LIG    1       -4.832   0.192   0.795  0.00  0.00    +0.042 A 
ENDBRANCH  14  15
ENDBRANCH  12  13
BRANCH   9   8
ATOM      8  O   LIG    1        3.287  -1.869  -0.565  0.00  0.00    -0.475 OA
BRANCH   8   7
ATOM      7  C   LIG    1        4.057  -2.127   0.591  0.00  0.00    +0.205 C 
BRANCH   7   6
ATOM      6  C   LIG    1        4.118  -0.932   1.519  0.00  0.00    +0.047 C 
BRANCH   6   5
ATOM      5  C   LIG    1        4.750   0.201   0.730  0.00  0.00    +0.004 C 
BRANCH   5   4
ATOM      4  C   LIG    1        6.136  -0.223   0.293  0.00  0.00    +0.012 C 
BRANCH   4   3
ATOM      3  C   LIG    1        6.787   0.883  -0.493  0.00  0.00    +0.114 C 
BRANCH   3   2
ATOM      1  O   LIG    1        7.424   3.144  -0.158  0.00  0.00    -0.246 OA
ATOM      2  C   LIG    1        6.909   2.123   0.327  0.00  0.00    +0.365 C 
ATOM     25  O   LIG    1        6.448   2.136   1.631  0.00  0.00    -0.246 OA
ENDBRANCH   3   2
ENDBRANCH   4   3
ENDBRANCH   5   4
ENDBRANCH   6   5
ENDBRANCH   7   6
ENDBRANCH   8   7
ENDBRANCH   9   8
TORSDOF 9
