REMARK  Name = 
REMARK                            x       y       z     vdW  Elec       q    Type
REMARK                         _______ _______ _______ _____ _____    ______ ____
ROOT
ATOM     12  C   LIG    1       -0.787   0.060  -0.330  0.00  0.00    +0.145 A 
ATOM     13  C   LIG    1        0.486   0.515  -0.035  0.00  0.00    +0.037 A 
ATOM     14  C   LIG    1        1.576  -0.280  -0.266  0.00  0.00    +0.006 A 
ATOM     24  C   LIG    1        1.423  -1.549  -0.796  0.00  0.00    +0.042 A 
ATOM     25  C   LIG    1        0.159  -2.009  -1.092  0.00  0.00    +0.199 A 
ATOM     26  O   LIG    1        0.019  -3.305  -1.631  0.00  0.00    -0.286 OA
ATOM     27  C   LIG    1       -0.914  -1.198  -0.853  0.00  0.00    +0.079 A 
ENDROOT
BRANCH  14  15
ATOM     15  C   LIG    1        2.937   0.182   0.039  0.00  0.00    +0.000 C 
ATOM     16  C   LIG    1        3.995  -0.573  -0.178  0.00  0.00    +0.000 C 
BRANCH  16  17
ATOM     17  C   LIG    1        5.320  -0.058   0.145  0.00  0.00    +0.000 A 
ATOM     18  C   LIG    1        6.472  -0.782  -0.051  0.00  0.00    +0.003 A 
ATOM     19  C   LIG    1        7.732  -0.284   0.260  0.00  0.00    +0.042 A 
ATOM     20  C   LIG    1        7.800   0.990   0.785  0.00  0.00    +0.196 A 
ATOM     21  O   LIG    1        9.036   1.544   1.117  0.00  0.00    -0.287 OA
ATOM     22  C   LIG    1        6.680   1.745   0.996  0.00  0.00    +0.042 A 
ATOM     23  C   LIG    1        5.461   1.209   0.674  0.00  0.00    +0.003 A 
ENDBRANCH  16  17
ENDBRANCH  14  15
BRANCH  12  11
ATOM     11  O   LIG    1       -1.886   0.915  -0.076  0.00  0.00    -0.450 OA
BRANCH  11  10
ATOM      3  C   LIG    1       -5.337   0.920  -0.601  0.00  0.00    +0.185 C 
ATOM      4  C   LIG    1       -5.798   0.445   1.029  0.00  0.00    +0.215 C 
ATOM      5  O   LIG    1       -7.087  -0.138   0.526  0.00  0.00    -0.218 OA
ATOM      6  C   LIG    1       -4.964  -1.044   0.799  0.00  0.00    +0.221 C 
ATOM      7  O   LIG    1       -5.230  -1.479   2.219  0.00  0.00    -0.217 OA
ATOM      8  C   LIG    1       -3.449  -0.326   1.264  0.00  0.00    +0.254 C 
ATOM      9  O   LIG    1       -2.761  -1.627   1.024  0.00  0.00    -0.213 OA
ATOM     10  C   LIG    1       -3.229   0.204  -0.419  0.00  0.00    +0.322 C 
ATOM     28  O   LIG    1       -4.036   1.523  -0.075  0.00  0.00    -0.316 OA
BRANCH   3   2
ATOM      1  O   LIG    1       -7.446   2.056  -0.889  0.00  0.00    -0.218 OA
ATOM      2  C   LIG    1       -6.170   2.345  -0.454  0.00  0.00    +0.214 C 
ENDBRANCH   3   2
ENDBRANCH  11  10
ENDBRANCH  12  11
TORSDOF 5
