MODEL 1
REMARK VINA RESULT:      -6.4      0.000      0.000
REMARK  Name = 
REMARK                            x       y       z     vdW  Elec       q    Type
REMARK                         _______ _______ _______ _____ _____    ______ ____
ROOT
ATOM      4  C   LIG    1       26.283  80.650 -13.114  0.00  0.00    +0.175 A 
ATOM      5  C   LIG    1       27.586  80.206 -13.278  0.00  0.00    +0.040 A 
ATOM      6  C   LIG    1       28.364  79.928 -12.155  0.00  0.00    +0.006 A 
ATOM     16  C   LIG    1       27.881  80.081 -10.872  0.00  0.00    +0.042 A 
ATOM     17  C   LIG    1       26.584  80.523 -10.728  0.00  0.00    +0.199 A 
ATOM     18  O   LIG    1       25.989  80.715  -9.488  0.00  0.00    -0.286 OA
ATOM     19  C   LIG    1       25.815  80.798 -11.839  0.00  0.00    +0.082 A 
ENDROOT
BRANCH   6   7
ATOM      7  C   LIG    1       29.728  79.464 -12.433  0.00  0.00    +0.000 C 
ATOM      8  C   LIG    1       30.746  79.726 -11.650  0.00  0.00    +0.000 C 
BRANCH   8   9
ATOM      9  C   LIG    1       32.087  79.237 -11.976  0.00  0.00    +0.000 A 
ATOM     10  C   LIG    1       32.529  79.124 -13.268  0.00  0.00    +0.003 A 
ATOM     11  C   LIG    1       33.801  78.658 -13.509  0.00  0.00    +0.042 A 
ATOM     12  C   LIG    1       34.630  78.305 -12.466  0.00  0.00    +0.196 A 
ATOM     13  O   LIG    1       35.923  77.831 -12.726  0.00  0.00    -0.287 OA
ATOM     14  C   LIG    1       34.199  78.414 -11.171  0.00  0.00    +0.042 A 
ATOM     15  C   LIG    1       32.924  78.881 -10.920  0.00  0.00    +0.003 A 
ENDBRANCH   8   9
ENDBRANCH   6   7
BRANCH   4   3
ATOM      3  O   LIG    1       25.555  80.911 -14.259  0.00  0.00    -0.359 OA
BRANCH   3   2
ATOM      1  O   LIG    1       26.941  82.837 -15.314  0.00  0.00    -0.336 OA
ATOM      2  S   LIG    1       25.544  82.474 -14.919  0.00  0.00    +0.043 S 
ATOM     20  O   LIG    1       24.911  83.554 -13.801  0.00  0.00    -0.259 OA
ATOM     21  O   LIG    1       24.712  82.481 -16.179  0.00  0.00    -0.336 OA
ENDBRANCH   3   2
ENDBRANCH   4   3
TORSDOF 4
ENDMDL
MODEL 2
REMARK VINA RESULT:      -6.4     29.147     30.917
REMARK  Name = 
REMARK                            x       y       z     vdW  Elec       q    Type
REMARK                         _______ _______ _______ _____ _____    ______ ____
ROOT
ATOM      4  C   LIG    1       18.374  67.449  14.036  0.00  0.00    +0.175 A 
ATOM      5  C   LIG    1       19.349  68.403  14.279  0.00  0.00    +0.040 A 
ATOM      6  C   LIG    1       19.461  69.504  13.432  0.00  0.00    +0.006 A 
ATOM     16  C   LIG    1       18.628  69.683  12.348  0.00  0.00    +0.042 A 
ATOM     17  C   LIG    1       17.664  68.726  12.121  0.00  0.00    +0.199 A 
ATOM     18  O   LIG    1       16.769  68.797  11.062  0.00  0.00    -0.286 OA
ATOM     19  C   LIG    1       17.553  67.636  12.959  0.00  0.00    +0.082 A 
ENDROOT
BRANCH   6   7
ATOM      7  C   LIG    1       20.525  70.456  13.774  0.00  0.00    +0.000 C 
ATOM      8  C   LIG    1       20.740  70.879  14.996  0.00  0.00    +0.000 C 
BRANCH   8   9
ATOM      9  C   LIG    1       21.816  71.830  15.281  0.00  0.00    +0.000 A 
ATOM     10  C   LIG    1       22.523  71.803  16.454  0.00  0.00    +0.003 A 
ATOM     11  C   LIG    1       23.524  72.726  16.661  0.00  0.00    +0.042 A 
ATOM     12  C   LIG    1       23.818  73.671  15.703  0.00  0.00    +0.196 A 
ATOM     13  O   LIG    1       24.840  74.604  15.928  0.00  0.00    -0.287 OA
ATOM     14  C   LIG    1       23.118  73.707  14.527  0.00  0.00    +0.042 A 
ATOM     15  C   LIG    1       22.112  72.785  14.311  0.00  0.00    +0.003 A 
ENDBRANCH   8   9
ENDBRANCH   6   7
BRANCH   4   3
ATOM      3  O   LIG    1       18.305  66.378  14.906  0.00  0.00    -0.359 OA
BRANCH   3   2
ATOM      1  O   LIG    1       18.718  63.877  15.467  0.00  0.00    -0.336 OA
ATOM      2  S   LIG    1       19.241  64.992  14.618  0.00  0.00    +0.043 S 
ATOM     20  O   LIG    1       20.853  65.322  14.945  0.00  0.00    -0.259 OA
ATOM     21  O   LIG    1       19.078  64.566  13.178  0.00  0.00    -0.336 OA
ENDBRANCH   3   2
ENDBRANCH   4   3
TORSDOF 4
ENDMDL
MODEL 3
REMARK VINA RESULT:      -6.1     29.183     32.108
REMARK  Name = 
REMARK                            x       y       z     vdW  Elec       q    Type
REMARK                         _______ _______ _______ _____ _____    ______ ____
ROOT
ATOM      4  C   LIG    1       19.851  65.313  14.503  0.00  0.00    +0.175 A 
ATOM      5  C   LIG    1       18.939  65.490  13.475  0.00  0.00    +0.040 A 
ATOM      6  C   LIG    1       18.252  66.698  13.367  0.00  0.00    +0.006 A 
ATOM     16  C   LIG    1       18.448  67.736  14.253  0.00  0.00    +0.042 A 
ATOM     17  C   LIG    1       19.359  67.542  15.269  0.00  0.00    +0.199 A 
ATOM     18  O   LIG    1       19.641  68.513  16.221  0.00  0.00    -0.286 OA
ATOM     19  C   LIG    1       20.039  66.347  15.376  0.00  0.00    +0.082 A 
ENDROOT
BRANCH   6   7
ATOM      7  C   LIG    1       17.308  66.788  12.246  0.00  0.00    +0.000 C 
ATOM      8  C   LIG    1       17.415  66.058  11.162  0.00  0.00    +0.000 C 
BRANCH   8   9
ATOM      9  C   LIG    1       16.445  66.189  10.073  0.00  0.00    +0.000 A 
ATOM     10  C   LIG    1       16.779  65.957   8.766  0.00  0.00    +0.003 A 
ATOM     11  C   LIG    1       15.821  66.097   7.787  0.00  0.00    +0.042 A 
ATOM     12  C   LIG    1       14.533  66.465   8.112  0.00  0.00    +0.196 A 
ATOM     13  O   LIG    1       13.567  66.603   7.107  0.00  0.00    -0.287 OA
ATOM     14  C   LIG    1       14.188  66.699   9.417  0.00  0.00    +0.042 A 
ATOM     15  C   LIG    1       15.143  66.561  10.404  0.00  0.00    +0.003 A 
ENDBRANCH   8   9
ENDBRANCH   6   7
BRANCH   4   3
ATOM      3  O   LIG    1       20.505  64.097  14.566  0.00  0.00    -0.359 OA
BRANCH   3   2
ATOM      1  O   LIG    1       20.572  62.077  16.196  0.00  0.00    -0.336 OA
ATOM      2  S   LIG    1       19.699  62.732  15.172  0.00  0.00    +0.043 S 
ATOM     20  O   LIG    1       19.325  61.690  13.911  0.00  0.00    -0.259 OA
ATOM     21  O   LIG    1       18.437  63.167  15.880  0.00  0.00    -0.336 OA
ENDBRANCH   3   2
ENDBRANCH   4   3
TORSDOF 4
ENDMDL
MODEL 4
REMARK VINA RESULT:      -6.0     29.068     31.225
REMARK  Name = 
REMARK                            x       y       z     vdW  Elec       q    Type
REMARK                         _______ _______ _______ _____ _____    ______ ____
ROOT
ATOM      4  C   LIG    1       22.806  71.914  16.963  0.00  0.00    +0.175 A 
ATOM      5  C   LIG    1       21.771  71.437  16.174  0.00  0.00    +0.040 A 
ATOM      6  C   LIG    1       21.604  71.936  14.884  0.00  0.00    +0.006 A 
ATOM     16  C   LIG    1       22.440  72.898  14.355  0.00  0.00    +0.042 A 
ATOM     17  C   LIG    1       23.463  73.361  15.154  0.00  0.00    +0.199 A 
ATOM     18  O   LIG    1       24.366  74.327  14.733  0.00  0.00    -0.286 OA
ATOM     19  C   LIG    1       23.628  72.867  16.431  0.00  0.00    +0.082 A 
ENDROOT
BRANCH   6   7
ATOM      7  C   LIG    1       20.481  71.368  14.129  0.00  0.00    +0.000 C 
ATOM      8  C   LIG    1       20.469  70.134  13.686  0.00  0.00    +0.000 C 
BRANCH   8   9
ATOM      9  C   LIG    1       19.321  69.619  12.938  0.00  0.00    +0.000 A 
ATOM     10  C   LIG    1       18.861  70.223  11.798  0.00  0.00    +0.003 A 
ATOM     11  C   LIG    1       17.777  69.689  11.139  0.00  0.00    +0.042 A 
ATOM     12  C   LIG    1       17.153  68.556  11.615  0.00  0.00    +0.196 A 
ATOM     13  O   LIG    1       16.050  68.023  10.935  0.00  0.00    -0.287 OA
ATOM     14  C   LIG    1       17.605  67.944  12.754  0.00  0.00    +0.042 A 
ATOM     15  C   LIG    1       18.692  68.473  13.421  0.00  0.00    +0.003 A 
ENDBRANCH   8   9
ENDBRANCH   6   7
BRANCH   4   3
ATOM      3  O   LIG    1       22.927  71.385  18.234  0.00  0.00    -0.359 OA
BRANCH   3   2
ATOM      1  O   LIG    1       24.079  69.269  17.266  0.00  0.00    -0.336 OA
ATOM      2  S   LIG    1       23.272  69.736  18.436  0.00  0.00    +0.043 S 
ATOM     20  O   LIG    1       21.840  68.874  18.590  0.00  0.00    -0.259 OA
ATOM     21  O   LIG    1       24.127  69.548  19.667  0.00  0.00    -0.336 OA
ENDBRANCH   3   2
ENDBRANCH   4   3
TORSDOF 4
ENDMDL
MODEL 5
REMARK VINA RESULT:      -5.9     44.962     46.137
REMARK  Name = 
REMARK                            x       y       z     vdW  Elec       q    Type
REMARK                         _______ _______ _______ _____ _____    ______ ____
ROOT
ATOM      4  C   LIG    1        6.263  37.588 -15.440  0.00  0.00    +0.175 A 
ATOM      5  C   LIG    1        6.514  38.851 -14.928  0.00  0.00    +0.040 A 
ATOM      6  C   LIG    1        7.294  39.746 -15.658  0.00  0.00    +0.006 A 
ATOM     16  C   LIG    1        7.832  39.420 -16.885  0.00  0.00    +0.042 A 
ATOM     17  C   LIG    1        7.572  38.160 -17.379  0.00  0.00    +0.199 A 
ATOM     18  O   LIG    1        8.058  37.717 -18.601  0.00  0.00    -0.286 OA
ATOM     19  C   LIG    1        6.800  37.274 -16.656  0.00  0.00    +0.082 A 
ENDROOT
BRANCH   6   7
ATOM      7  C   LIG    1        7.502  41.057 -15.031  0.00  0.00    +0.000 C 
ATOM      8  C   LIG    1        8.139  42.039 -15.621  0.00  0.00    +0.000 C 
BRANCH   8   9
ATOM      9  C   LIG    1        8.318  43.327 -14.948  0.00  0.00    +0.000 A 
ATOM     10  C   LIG    1        9.047  44.345 -15.503  0.00  0.00    +0.003 A 
ATOM     11  C   LIG    1        9.178  45.533 -14.819  0.00  0.00    +0.042 A 
ATOM     12  C   LIG    1        8.583  45.706 -13.588  0.00  0.00    +0.196 A 
ATOM     13  O   LIG    1        8.724  46.920 -12.904  0.00  0.00    -0.287 OA
ATOM     14  C   LIG    1        7.851  44.694 -13.025  0.00  0.00    +0.042 A 
ATOM     15  C   LIG    1        7.716  43.499 -13.704  0.00  0.00    +0.003 A 
ENDBRANCH   8   9
ENDBRANCH   6   7
BRANCH   4   3
ATOM      3  O   LIG    1        5.485  36.739 -14.676  0.00  0.00    -0.359 OA
BRANCH   3   2
ATOM      1  O   LIG    1        7.617  35.752 -13.571  0.00  0.00    -0.336 OA
ATOM      2  S   LIG    1        6.196  35.413 -13.892  0.00  0.00    +0.043 S 
ATOM     20  O   LIG    1        6.084  34.053 -14.869  0.00  0.00    -0.259 OA
ATOM     21  O   LIG    1        5.491  35.169 -12.578  0.00  0.00    -0.336 OA
ENDBRANCH   3   2
ENDBRANCH   4   3
TORSDOF 4
ENDMDL
MODEL 6
REMARK VINA RESULT:      -5.8     35.187     37.232
REMARK  Name = 
REMARK                            x       y       z     vdW  Elec       q    Type
REMARK                         _______ _______ _______ _____ _____    ______ ____
ROOT
ATOM      4  C   LIG    1        7.309  50.072  -0.211  0.00  0.00    +0.175 A 
ATOM      5  C   LIG    1        8.044  51.181   0.176  0.00  0.00    +0.040 A 
ATOM      6  C   LIG    1        7.833  52.403  -0.461  0.00  0.00    +0.006 A 
ATOM     16  C   LIG    1        6.908  52.552  -1.473  0.00  0.00    +0.042 A 
ATOM     17  C   LIG    1        6.185  51.439  -1.844  0.00  0.00    +0.199 A 
ATOM     18  O   LIG    1        5.228  51.466  -2.849  0.00  0.00    -0.286 OA
ATOM     19  C   LIG    1        6.395  50.230  -1.214  0.00  0.00    +0.082 A 
ENDROOT
BRANCH   6   7
ATOM      7  C   LIG    1        8.660  53.515   0.019  0.00  0.00    +0.000 C 
ATOM      8  C   LIG    1        9.299  54.330  -0.785  0.00  0.00    +0.000 C 
BRANCH   8   9
ATOM      9  C   LIG    1       10.112  55.425  -0.250  0.00  0.00    +0.000 A 
ATOM     10  C   LIG    1       11.313  55.780  -0.804  0.00  0.00    +0.003 A 
ATOM     11  C   LIG    1       12.030  56.819  -0.255  0.00  0.00    +0.042 A 
ATOM     12  C   LIG    1       11.551  57.502   0.842  0.00  0.00    +0.196 A 
ATOM     13  O   LIG    1       12.291  58.557   1.391  0.00  0.00    -0.287 OA
ATOM     14  C   LIG    1       10.351  57.155   1.404  0.00  0.00    +0.042 A 
ATOM     15  C   LIG    1        9.626  56.114   0.859  0.00  0.00    +0.003 A 
ENDBRANCH   8   9
ENDBRANCH   6   7
BRANCH   4   3
ATOM      3  O   LIG    1        7.557  48.886   0.453  0.00  0.00    -0.359 OA
BRANCH   3   2
ATOM      1  O   LIG    1        7.674  48.978   3.045  0.00  0.00    -0.336 OA
ATOM      2  S   LIG    1        6.777  48.559   1.924  0.00  0.00    +0.043 S 
ATOM     20  O   LIG    1        6.392  46.928   2.009  0.00  0.00    -0.259 OA
ATOM     21  O   LIG    1        5.523  49.396   2.024  0.00  0.00    -0.336 OA
ENDBRANCH   3   2
ENDBRANCH   4   3
TORSDOF 4
ENDMDL
MODEL 7
REMARK VINA RESULT:      -5.7     32.686     34.583
REMARK  Name = 
REMARK                            x       y       z     vdW  Elec       q    Type
REMARK                         _______ _______ _______ _____ _____    ______ ____
ROOT
ATOM      4  C   LIG    1       11.632  57.238   7.169  0.00  0.00    +0.175 A 
ATOM      5  C   LIG    1       11.467  57.049   5.806  0.00  0.00    +0.040 A 
ATOM      6  C   LIG    1       12.010  57.971   4.914  0.00  0.00    +0.006 A 
ATOM     16  C   LIG    1       12.715  59.077   5.340  0.00  0.00    +0.042 A 
ATOM     17  C   LIG    1       12.869  59.249   6.698  0.00  0.00    +0.199 A 
ATOM     18  O   LIG    1       13.557  60.323   7.246  0.00  0.00    -0.286 OA
ATOM     19  C   LIG    1       12.331  58.337   7.581  0.00  0.00    +0.082 A 
ENDROOT
BRANCH   6   7
ATOM      7  C   LIG    1       11.781  57.682   3.493  0.00  0.00    +0.000 C 
ATOM      8  C   LIG    1       10.963  56.746   3.077  0.00  0.00    +0.000 C 
BRANCH   8   9
ATOM      9  C   LIG    1       10.773  56.500   1.646  0.00  0.00    +0.000 A 
ATOM     10  C   LIG    1        9.533  56.506   1.063  0.00  0.00    +0.003 A 
ATOM     11  C   LIG    1        9.420  56.268  -0.288  0.00  0.00    +0.042 A 
ATOM     12  C   LIG    1       10.539  56.025  -1.056  0.00  0.00    +0.196 A 
ATOM     13  O   LIG    1       10.410  55.785  -2.430  0.00  0.00    -0.287 OA
ATOM     14  C   LIG    1       11.783  56.017  -0.483  0.00  0.00    +0.042 A 
ATOM     15  C   LIG    1       11.905  56.255   0.872  0.00  0.00    +0.003 A 
ENDBRANCH   8   9
ENDBRANCH   6   7
BRANCH   4   3
ATOM      3  O   LIG    1       11.073  56.295   8.011  0.00  0.00    -0.359 OA
BRANCH   3   2
ATOM      1  O   LIG    1        9.168  55.629   9.645  0.00  0.00    -0.336 OA
ATOM      2  S   LIG    1        9.412  56.342   8.353  0.00  0.00    +0.043 S 
ATOM     20  O   LIG    1        8.555  55.650   7.087  0.00  0.00    -0.259 OA
ATOM     21  O   LIG    1        8.981  57.777   8.550  0.00  0.00    -0.336 OA
ENDBRANCH   3   2
ENDBRANCH   4   3
TORSDOF 4
ENDMDL
MODEL 8
REMARK VINA RESULT:      -5.6     24.879     26.762
REMARK  Name = 
REMARK                            x       y       z     vdW  Elec       q    Type
REMARK                         _______ _______ _______ _____ _____    ______ ____
ROOT
ATOM      4  C   LIG    1       16.036  61.400 -14.854  0.00  0.00    +0.175 A 
ATOM      5  C   LIG    1       15.097  60.437 -15.187  0.00  0.00    +0.040 A 
ATOM      6  C   LIG    1       13.748  60.673 -14.926  0.00  0.00    +0.006 A 
ATOM     16  C   LIG    1       13.307  61.842 -14.343  0.00  0.00    +0.042 A 
ATOM     17  C   LIG    1       14.255  62.789 -14.019  0.00  0.00    +0.199 A 
ATOM     18  O   LIG    1       13.933  64.003 -13.428  0.00  0.00    -0.286 OA
ATOM     19  C   LIG    1       15.589  62.555 -14.276  0.00  0.00    +0.082 A 
ENDROOT
BRANCH   6   7
ATOM      7  C   LIG    1       12.834  59.593 -15.315  0.00  0.00    +0.000 C 
ATOM      8  C   LIG    1       12.197  58.847 -14.444  0.00  0.00    +0.000 C 
BRANCH   8   9
ATOM      9  C   LIG    1       11.295  57.782 -14.888  0.00  0.00    +0.000 A 
ATOM     10  C   LIG    1       10.473  57.113 -14.021  0.00  0.00    +0.003 A 
ATOM     11  C   LIG    1        9.648  56.122 -14.501  0.00  0.00    +0.042 A 
ATOM     12  C   LIG    1        9.642  55.798 -15.841  0.00  0.00    +0.196 A 
ATOM     13  O   LIG    1        8.797  54.786 -16.316  0.00  0.00    -0.287 OA
ATOM     14  C   LIG    1       10.461  56.461 -16.716  0.00  0.00    +0.042 A 
ATOM     15  C   LIG    1       11.292  57.457 -16.243  0.00  0.00    +0.003 A 
ENDBRANCH   8   9
ENDBRANCH   6   7
BRANCH   4   3
ATOM      3  O   LIG    1       17.359  61.116 -15.134  0.00  0.00    -0.359 OA
BRANCH   3   2
ATOM      1  O   LIG    1       17.108  62.153 -17.501  0.00  0.00    -0.336 OA
ATOM      2  S   LIG    1       17.911  61.147 -16.739  0.00  0.00    +0.043 S 
ATOM     20  O   LIG    1       17.788  59.614 -17.408  0.00  0.00    -0.259 OA
ATOM     21  O   LIG    1       19.347  61.615 -16.767  0.00  0.00    -0.336 OA
ENDBRANCH   3   2
ENDBRANCH   4   3
TORSDOF 4
ENDMDL
MODEL 9
REMARK VINA RESULT:      -5.5      3.318      8.462
REMARK  Name = 
REMARK                            x       y       z     vdW  Elec       q    Type
REMARK                         _______ _______ _______ _____ _____    ______ ____
ROOT
ATOM      4  C   LIG    1       34.358  78.451  -9.930  0.00  0.00    +0.175 A 
ATOM      5  C   LIG    1       33.154  79.038 -10.287  0.00  0.00    +0.040 A 
ATOM      6  C   LIG    1       31.959  78.498  -9.816  0.00  0.00    +0.006 A 
ATOM     16  C   LIG    1       31.928  77.388  -8.997  0.00  0.00    +0.042 A 
ATOM     17  C   LIG    1       33.134  76.818  -8.652  0.00  0.00    +0.199 A 
ATOM     18  O   LIG    1       33.229  75.699  -7.835  0.00  0.00    -0.286 OA
ATOM     19  C   LIG    1       34.316  77.352  -9.119  0.00  0.00    +0.082 A 
ENDROOT
BRANCH   6   7
ATOM      7  C   LIG    1       30.740  79.191 -10.250  0.00  0.00    +0.000 C 
ATOM      8  C   LIG    1       30.054  78.834 -11.308  0.00  0.00    +0.000 C 
BRANCH   8   9
ATOM      9  C   LIG    1       28.844  79.562 -11.696  0.00  0.00    +0.000 A 
ATOM     10  C   LIG    1       28.550  79.845 -13.003  0.00  0.00    +0.003 A 
ATOM     11  C   LIG    1       27.395  80.533 -13.303  0.00  0.00    +0.042 A 
ATOM     12  C   LIG    1       26.537  80.937 -12.302  0.00  0.00    +0.196 A 
ATOM     13  O   LIG    1       25.366  81.636 -12.622  0.00  0.00    -0.287 OA
ATOM     14  C   LIG    1       26.822  80.658 -10.992  0.00  0.00    +0.042 A 
ATOM     15  C   LIG    1       27.978  79.969 -10.683  0.00  0.00    +0.003 A 
ENDBRANCH   8   9
ENDBRANCH   6   7
BRANCH   4   3
ATOM      3  O   LIG    1       35.513  79.026 -10.424  0.00  0.00    -0.359 OA
BRANCH   3   2
ATOM      1  O   LIG    1       37.341  79.266 -12.253  0.00  0.00    -0.336 OA
ATOM      2  S   LIG    1       36.336  78.297 -11.717  0.00  0.00    +0.043 S 
ATOM     20  O   LIG    1       35.236  77.824 -12.892  0.00  0.00    -0.259 OA
ATOM     21  O   LIG    1       37.104  77.098 -11.211  0.00  0.00    -0.336 OA
ENDBRANCH   3   2
ENDBRANCH   4   3
TORSDOF 4
ENDMDL
MODEL 10
REMARK VINA RESULT:      -5.5     24.723     26.679
REMARK  Name = 
REMARK                            x       y       z     vdW  Elec       q    Type
REMARK                         _______ _______ _______ _____ _____    ______ ____
ROOT
ATOM      4  C   LIG    1       16.120  61.149 -14.768  0.00  0.00    +0.175 A 
ATOM      5  C   LIG    1       15.022  60.362 -15.079  0.00  0.00    +0.040 A 
ATOM      6  C   LIG    1       15.061  59.542 -16.206  0.00  0.00    +0.006 A 
ATOM     16  C   LIG    1       16.163  59.483 -17.032  0.00  0.00    +0.042 A 
ATOM     17  C   LIG    1       17.246  60.271 -16.707  0.00  0.00    +0.199 A 
ATOM     18  O   LIG    1       18.410  60.297 -17.463  0.00  0.00    -0.286 OA
ATOM     19  C   LIG    1       17.207  61.083 -15.593  0.00  0.00    +0.082 A 
ENDROOT
BRANCH   6   7
ATOM      7  C   LIG    1       13.851  58.749 -16.449  0.00  0.00    +0.000 C 
ATOM      8  C   LIG    1       12.699  59.008 -15.878  0.00  0.00    +0.000 C 
BRANCH   8   9
ATOM      9  C   LIG    1       11.522  58.183 -16.158  0.00  0.00    +0.000 A 
ATOM     10  C   LIG    1       11.313  56.978 -15.541  0.00  0.00    +0.003 A 
ATOM     11  C   LIG    1       10.185  56.249 -15.847  0.00  0.00    +0.042 A 
ATOM     12  C   LIG    1        9.271  56.719 -16.765  0.00  0.00    +0.196 A 
ATOM     13  O   LIG    1        8.128  55.967 -17.067  0.00  0.00    -0.287 OA
ATOM     14  C   LIG    1        9.471  57.923 -17.387  0.00  0.00    +0.042 A 
ATOM     15  C   LIG    1       10.599  58.661 -17.086  0.00  0.00    +0.003 A 
ENDBRANCH   8   9
ENDBRANCH   6   7
BRANCH   4   3
ATOM      3  O   LIG    1       16.029  61.942 -13.640  0.00  0.00    -0.359 OA
BRANCH   3   2
ATOM      1  O   LIG    1       13.848  63.273 -13.175  0.00  0.00    -0.336 OA
ATOM      2  S   LIG    1       15.232  63.438 -13.719  0.00  0.00    +0.043 S 
ATOM     20  O   LIG    1       15.218  63.987 -15.305  0.00  0.00    -0.259 OA
ATOM     21  O   LIG    1       15.941  64.433 -12.830  0.00  0.00    -0.336 OA
ENDBRANCH   3   2
ENDBRANCH   4   3
TORSDOF 4
ENDMDL
