MODEL 1
REMARK VINA RESULT:      -6.8      0.000      0.000
REMARK  Name = 
REMARK                            x       y       z     vdW  Elec       q    Type
REMARK                         _______ _______ _______ _____ _____    ______ ____
ROOT
ATOM     12  C   LIG    1       26.486  80.520 -10.368  0.00  0.00    +0.145 A 
ATOM     13  C   LIG    1       27.778  80.042 -10.491  0.00  0.00    +0.037 A 
ATOM     14  C   LIG    1       28.259  79.651 -11.711  0.00  0.00    +0.006 A 
ATOM     24  C   LIG    1       27.461  79.725 -12.840  0.00  0.00    +0.042 A 
ATOM     25  C   LIG    1       26.173  80.199 -12.726  0.00  0.00    +0.199 A 
ATOM     26  O   LIG    1       25.372  80.268 -13.884  0.00  0.00    -0.286 OA
ATOM     27  C   LIG    1       25.715  80.584 -11.497  0.00  0.00    +0.079 A 
ENDROOT
BRANCH  14  15
ATOM     15  C   LIG    1       29.629  79.142 -11.866  0.00  0.00    +0.000 C 
ATOM     16  C   LIG    1       30.676  79.941 -11.848  0.00  0.00    +0.000 C 
BRANCH  16  17
ATOM     17  C   LIG    1       32.010  79.375 -12.006  0.00  0.00    +0.000 A 
ATOM     18  C   LIG    1       32.795  79.000 -10.940  0.00  0.00    +0.003 A 
ATOM     19  C   LIG    1       34.066  78.461 -11.099  0.00  0.00    +0.042 A 
ATOM     20  C   LIG    1       34.535  78.308 -12.387  0.00  0.00    +0.196 A 
ATOM     21  O   LIG    1       35.804  77.773 -12.610  0.00  0.00    -0.287 OA
ATOM     22  C   LIG    1       33.789  78.667 -13.475  0.00  0.00    +0.042 A 
ATOM     23  C   LIG    1       32.542  79.194 -13.266  0.00  0.00    +0.003 A 
ENDBRANCH  16  17
ENDBRANCH  14  15
BRANCH  12  11
ATOM     11  O   LIG    1       26.029  80.914  -9.088  0.00  0.00    -0.450 OA
BRANCH  11  10
ATOM      3  C   LIG    1       25.514  77.938  -7.337  0.00  0.00    +0.185 C 
ATOM      4  C   LIG    1       24.673  78.646  -5.963  0.00  0.00    +0.215 C 
ATOM      5  O   LIG    1       25.100  77.509  -5.080  0.00  0.00    -0.218 OA
ATOM      6  C   LIG    1       26.095  79.546  -5.595  0.00  0.00    +0.221 C 
ATOM      7  O   LIG    1       25.411  80.272  -4.463  0.00  0.00    -0.217 OA
ATOM      8  C   LIG    1       25.653  80.800  -6.716  0.00  0.00    +0.254 C 
ATOM      9  O   LIG    1       26.910  81.532  -6.390  0.00  0.00    -0.213 OA
ATOM     10  C   LIG    1       26.429  79.861  -8.011  0.00  0.00    +0.322 C 
ATOM     28  O   LIG    1       25.061  79.092  -8.229  0.00  0.00    -0.316 OA
BRANCH   3   2
ATOM      1  O   LIG    1       24.154  76.977  -9.083  0.00  0.00    -0.218 OA
ATOM      2  C   LIG    1       24.193  77.008  -7.705  0.00  0.00    +0.214 C 
ENDBRANCH   3   2
ENDBRANCH  11  10
ENDBRANCH  12  11
TORSDOF 5
ENDMDL
MODEL 2
REMARK VINA RESULT:      -6.6     43.992     45.693
REMARK  Name = 
REMARK                            x       y       z     vdW  Elec       q    Type
REMARK                         _______ _______ _______ _____ _____    ______ ____
ROOT
ATOM     12  C   LIG    1        4.401  54.081  20.973  0.00  0.00    +0.145 A 
ATOM     13  C   LIG    1        5.730  54.173  21.344  0.00  0.00    +0.037 A 
ATOM     14  C   LIG    1        6.176  55.252  22.059  0.00  0.00    +0.006 A 
ATOM     24  C   LIG    1        5.306  56.265  22.421  0.00  0.00    +0.042 A 
ATOM     25  C   LIG    1        3.981  56.180  22.055  0.00  0.00    +0.199 A 
ATOM     26  O   LIG    1        3.106  57.222  22.430  0.00  0.00    -0.286 OA
ATOM     27  C   LIG    1        3.559  55.095  21.341  0.00  0.00    +0.079 A 
ENDROOT
BRANCH  14  15
ATOM     15  C   LIG    1        7.583  55.371  22.465  0.00  0.00    +0.000 C 
ATOM     16  C   LIG    1        7.930  55.809  23.659  0.00  0.00    +0.000 C 
BRANCH  16  17
ATOM     17  C   LIG    1        9.343  55.905  24.002  0.00  0.00    +0.000 A 
ATOM     18  C   LIG    1       10.325  56.148  23.071  0.00  0.00    +0.003 A 
ATOM     19  C   LIG    1       11.671  56.238  23.407  0.00  0.00    +0.042 A 
ATOM     20  C   LIG    1       12.007  56.071  24.734  0.00  0.00    +0.196 A 
ATOM     21  O   LIG    1       13.341  56.150  25.132  0.00  0.00    -0.287 OA
ATOM     22  C   LIG    1       11.064  55.828  25.693  0.00  0.00    +0.042 A 
ATOM     23  C   LIG    1        9.750  55.748  25.312  0.00  0.00    +0.003 A 
ENDBRANCH  16  17
ENDBRANCH  14  15
BRANCH  12  11
ATOM     11  O   LIG    1        3.983  52.948  20.234  0.00  0.00    -0.450 OA
BRANCH  11  10
ATOM      3  C   LIG    1        3.940  52.806  16.747  0.00  0.00    +0.185 C 
ATOM      4  C   LIG    1        4.109  51.060  16.605  0.00  0.00    +0.215 C 
ATOM      5  O   LIG    1        4.721  51.200  15.242  0.00  0.00    -0.218 OA
ATOM      6  C   LIG    1        5.645  51.177  17.375  0.00  0.00    +0.221 C 
ATOM      7  O   LIG    1        5.818  49.678  17.385  0.00  0.00    -0.217 OA
ATOM      8  C   LIG    1        4.915  51.140  18.953  0.00  0.00    +0.254 C 
ATOM      9  O   LIG    1        6.262  51.271  19.578  0.00  0.00    -0.213 OA
ATOM     10  C   LIG    1        4.692  52.901  18.848  0.00  0.00    +0.322 C 
ATOM     28  O   LIG    1        3.304  52.649  18.126  0.00  0.00    -0.316 OA
BRANCH   3   2
ATOM      1  O   LIG    1        2.610  53.651  14.919  0.00  0.00    -0.218 OA
ATOM      2  C   LIG    1        2.481  52.758  15.962  0.00  0.00    +0.214 C 
ENDBRANCH   3   2
ENDBRANCH  11  10
ENDBRANCH  12  11
TORSDOF 5
ENDMDL
MODEL 3
REMARK VINA RESULT:      -6.6     26.426     28.749
REMARK  Name = 
REMARK                            x       y       z     vdW  Elec       q    Type
REMARK                         _______ _______ _______ _____ _____    ______ ____
ROOT
ATOM     12  C   LIG    1       18.084  66.321  13.402  0.00  0.00    +0.145 A 
ATOM     13  C   LIG    1       18.920  67.346  13.808  0.00  0.00    +0.037 A 
ATOM     14  C   LIG    1       18.837  68.580  13.222  0.00  0.00    +0.006 A 
ATOM     24  C   LIG    1       17.918  68.822  12.216  0.00  0.00    +0.042 A 
ATOM     25  C   LIG    1       17.083  67.806  11.806  0.00  0.00    +0.199 A 
ATOM     26  O   LIG    1       16.152  68.067  10.779  0.00  0.00    -0.286 OA
ATOM     27  C   LIG    1       17.184  66.583  12.406  0.00  0.00    +0.079 A 
ENDROOT
BRANCH  14  15
ATOM     15  C   LIG    1       19.714  69.684  13.636  0.00  0.00    +0.000 C 
ATOM     16  C   LIG    1       20.454  69.616  14.724  0.00  0.00    +0.000 C 
BRANCH  16  17
ATOM     17  C   LIG    1       21.304  70.744  15.083  0.00  0.00    +0.000 A 
ATOM     18  C   LIG    1       21.503  71.824  14.255  0.00  0.00    +0.003 A 
ATOM     19  C   LIG    1       22.316  72.896  14.604  0.00  0.00    +0.042 A 
ATOM     20  C   LIG    1       22.936  72.849  15.836  0.00  0.00    +0.196 A 
ATOM     21  O   LIG    1       23.764  73.895  16.242  0.00  0.00    -0.287 OA
ATOM     22  C   LIG    1       22.766  71.795  16.690  0.00  0.00    +0.042 A 
ATOM     23  C   LIG    1       21.956  70.762  16.300  0.00  0.00    +0.003 A 
ENDBRANCH  16  17
ENDBRANCH  14  15
BRANCH  12  11
ATOM     11  O   LIG    1       18.204  65.061  14.036  0.00  0.00    -0.450 OA
BRANCH  11  10
ATOM      3  C   LIG    1       21.083  63.221  13.321  0.00  0.00    +0.185 C 
ATOM      4  C   LIG    1       20.861  61.993  14.561  0.00  0.00    +0.215 C 
ATOM      5  O   LIG    1       22.338  61.728  14.604  0.00  0.00    -0.218 OA
ATOM      6  C   LIG    1       20.985  63.224  15.759  0.00  0.00    +0.221 C 
ATOM      7  O   LIG    1       20.697  62.248  16.874  0.00  0.00    -0.217 OA
ATOM      8  C   LIG    1       19.295  63.609  15.611  0.00  0.00    +0.254 C 
ATOM      9  O   LIG    1       19.453  64.685  16.631  0.00  0.00    -0.213 OA
ATOM     10  C   LIG    1       19.702  64.699  14.267  0.00  0.00    +0.322 C 
ATOM     28  O   LIG    1       19.577  63.470  13.275  0.00  0.00    -0.316 OA
BRANCH   3   2
ATOM      1  O   LIG    1       21.643  62.654  11.043  0.00  0.00    -0.218 OA
ATOM      2  C   LIG    1       21.026  62.070  12.129  0.00  0.00    +0.214 C 
ENDBRANCH   3   2
ENDBRANCH  11  10
ENDBRANCH  12  11
TORSDOF 5
ENDMDL
MODEL 4
REMARK VINA RESULT:      -6.4     21.521     24.804
REMARK  Name = 
REMARK                            x       y       z     vdW  Elec       q    Type
REMARK                         _______ _______ _______ _____ _____    ______ ____
ROOT
ATOM     12  C   LIG    1       25.458  75.359 -33.671  0.00  0.00    +0.145 A 
ATOM     13  C   LIG    1       25.644  74.026 -33.352  0.00  0.00    +0.037 A 
ATOM     14  C   LIG    1       25.964  73.119 -34.326  0.00  0.00    +0.006 A 
ATOM     24  C   LIG    1       26.107  73.521 -35.643  0.00  0.00    +0.042 A 
ATOM     25  C   LIG    1       25.923  74.846 -35.968  0.00  0.00    +0.199 A 
ATOM     26  O   LIG    1       26.071  75.240 -37.314  0.00  0.00    -0.286 OA
ATOM     27  C   LIG    1       25.604  75.733 -34.979  0.00  0.00    +0.079 A 
ENDROOT
BRANCH  14  15
ATOM     15  C   LIG    1       26.167  71.699 -34.011  0.00  0.00    +0.000 C 
ATOM     16  C   LIG    1       25.274  70.781 -34.323  0.00  0.00    +0.000 C 
BRANCH  16  17
ATOM     17  C   LIG    1       25.532  69.387 -33.984  0.00  0.00    +0.000 A 
ATOM     18  C   LIG    1       26.740  68.772 -34.217  0.00  0.00    +0.003 A 
ATOM     19  C   LIG    1       26.978  67.442 -33.891  0.00  0.00    +0.042 A 
ATOM     20  C   LIG    1       25.945  66.734 -33.313  0.00  0.00    +0.196 A 
ATOM     21  O   LIG    1       26.124  65.396 -32.965  0.00  0.00    -0.287 OA
ATOM     22  C   LIG    1       24.728  67.306 -33.064  0.00  0.00    +0.042 A 
ATOM     23  C   LIG    1       24.542  68.620 -33.404  0.00  0.00    +0.003 A 
ENDBRANCH  16  17
ENDBRANCH  14  15
BRANCH  12  11
ATOM     11  O   LIG    1       25.128  76.263 -32.632  0.00  0.00    -0.450 OA
BRANCH  11  10
ATOM      3  C   LIG    1       27.271  78.972 -32.127  0.00  0.00    +0.185 C 
ATOM      4  C   LIG    1       26.215  79.877 -31.049  0.00  0.00    +0.215 C 
ATOM      5  O   LIG    1       26.872  81.168 -31.441  0.00  0.00    -0.218 OA
ATOM      6  C   LIG    1       25.067  80.002 -32.327  0.00  0.00    +0.221 C 
ATOM      7  O   LIG    1       24.064  80.692 -31.436  0.00  0.00    -0.217 OA
ATOM      8  C   LIG    1       24.393  78.445 -31.942  0.00  0.00    +0.254 C 
ATOM      9  O   LIG    1       23.436  78.581 -33.078  0.00  0.00    -0.213 OA
ATOM     10  C   LIG    1       25.640  77.696 -32.965  0.00  0.00    +0.322 C 
ATOM     28  O   LIG    1       26.604  77.663 -31.708  0.00  0.00    -0.316 OA
BRANCH   3   2
ATOM      1  O   LIG    1       28.603  77.517 -30.738  0.00  0.00    -0.218 OA
ATOM      2  C   LIG    1       28.433  78.868 -30.950  0.00  0.00    +0.214 C 
ENDBRANCH   3   2
ENDBRANCH  11  10
ENDBRANCH  12  11
TORSDOF 5
ENDMDL
MODEL 5
REMARK VINA RESULT:      -6.4     19.218     22.677
REMARK  Name = 
REMARK                            x       y       z     vdW  Elec       q    Type
REMARK                         _______ _______ _______ _____ _____    ______ ____
ROOT
ATOM     12  C   LIG    1       33.052  59.563  -9.608  0.00  0.00    +0.145 A 
ATOM     13  C   LIG    1       31.884  58.947  -9.194  0.00  0.00    +0.037 A 
ATOM     14  C   LIG    1       30.761  59.688  -8.944  0.00  0.00    +0.006 A 
ATOM     24  C   LIG    1       30.776  61.063  -9.100  0.00  0.00    +0.042 A 
ATOM     25  C   LIG    1       31.934  61.684  -9.511  0.00  0.00    +0.199 A 
ATOM     26  O   LIG    1       31.934  63.086  -9.665  0.00  0.00    -0.286 OA
ATOM     27  C   LIG    1       33.043  60.923  -9.755  0.00  0.00    +0.079 A 
ENDROOT
BRANCH  14  15
ATOM     15  C   LIG    1       29.510  59.056  -8.505  0.00  0.00    +0.000 C 
ATOM     16  C   LIG    1       28.709  59.628  -7.628  0.00  0.00    +0.000 C 
BRANCH  16  17
ATOM     17  C   LIG    1       27.481  58.951  -7.232  0.00  0.00    +0.000 A 
ATOM     18  C   LIG    1       26.493  59.563  -6.498  0.00  0.00    +0.003 A 
ATOM     19  C   LIG    1       25.324  58.910  -6.124  0.00  0.00    +0.042 A 
ATOM     20  C   LIG    1       25.177  57.596  -6.517  0.00  0.00    +0.196 A 
ATOM     21  O   LIG    1       24.026  56.888  -6.171  0.00  0.00    -0.287 OA
ATOM     22  C   LIG    1       26.134  56.948  -7.247  0.00  0.00    +0.042 A 
ATOM     23  C   LIG    1       27.268  57.635  -7.591  0.00  0.00    +0.003 A 
ENDBRANCH  16  17
ENDBRANCH  14  15
BRANCH  12  11
ATOM     11  O   LIG    1       34.189  58.758  -9.856  0.00  0.00    -0.450 OA
BRANCH  11  10
ATOM      3  C   LIG    1       34.421  58.241 -13.300  0.00  0.00    +0.185 C 
ATOM      4  C   LIG    1       35.775  57.118 -13.253  0.00  0.00    +0.215 C 
ATOM      5  O   LIG    1       36.175  57.496 -14.650  0.00  0.00    -0.218 OA
ATOM      6  C   LIG    1       36.747  58.365 -12.572  0.00  0.00    +0.221 C 
ATOM      7  O   LIG    1       37.923  57.435 -12.403  0.00  0.00    -0.217 OA
ATOM      8  C   LIG    1       36.181  58.001 -10.968  0.00  0.00    +0.254 C 
ATOM      9  O   LIG    1       37.016  59.110 -10.424  0.00  0.00    -0.213 OA
ATOM     10  C   LIG    1       34.790  59.069 -11.259  0.00  0.00    +0.322 C 
ATOM     28  O   LIG    1       34.016  57.837 -11.884  0.00  0.00    -0.316 OA
BRANCH   3   2
ATOM      1  O   LIG    1       32.612  57.805 -14.835  0.00  0.00    -0.218 OA
ATOM      2  C   LIG    1       33.455  57.095 -14.008  0.00  0.00    +0.214 C 
ENDBRANCH   3   2
ENDBRANCH  11  10
ENDBRANCH  12  11
TORSDOF 5
ENDMDL
MODEL 6
REMARK VINA RESULT:      -6.4      2.125      5.707
REMARK  Name = 
REMARK                            x       y       z     vdW  Elec       q    Type
REMARK                         _______ _______ _______ _____ _____    ______ ____
ROOT
ATOM     12  C   LIG    1       27.273  79.980  -9.570  0.00  0.00    +0.145 A 
ATOM     13  C   LIG    1       28.500  79.664 -10.125  0.00  0.00    +0.037 A 
ATOM     14  C   LIG    1       29.494  79.132  -9.349  0.00  0.00    +0.006 A 
ATOM     24  C   LIG    1       29.289  78.903  -8.000  0.00  0.00    +0.042 A 
ATOM     25  C   LIG    1       28.070  79.216  -7.440  0.00  0.00    +0.199 A 
ATOM     26  O   LIG    1       27.877  78.978  -6.063  0.00  0.00    -0.286 OA
ATOM     27  C   LIG    1       27.093  79.746  -8.234  0.00  0.00    +0.079 A 
ENDROOT
BRANCH  14  15
ATOM     15  C   LIG    1       30.805  78.788  -9.917  0.00  0.00    +0.000 C 
ATOM     16  C   LIG    1       31.281  79.389 -10.988  0.00  0.00    +0.000 C 
BRANCH  16  17
ATOM     17  C   LIG    1       32.589  79.004 -11.503  0.00  0.00    +0.000 A 
ATOM     18  C   LIG    1       32.911  79.053 -12.839  0.00  0.00    +0.003 A 
ATOM     19  C   LIG    1       34.160  78.683 -13.323  0.00  0.00    +0.042 A 
ATOM     20  C   LIG    1       35.096  78.254 -12.405  0.00  0.00    +0.196 A 
ATOM     21  O   LIG    1       36.367  77.869 -12.830  0.00  0.00    -0.287 OA
ATOM     22  C   LIG    1       34.819  78.190 -11.067  0.00  0.00    +0.042 A 
ATOM     23  C   LIG    1       33.572  78.564 -10.640  0.00  0.00    +0.003 A 
ENDBRANCH  16  17
ENDBRANCH  14  15
BRANCH  12  11
ATOM     11  O   LIG    1       26.273  80.528 -10.408  0.00  0.00    -0.450 OA
BRANCH  11  10
ATOM      3  C   LIG    1       26.739  83.296 -12.482  0.00  0.00    +0.185 C 
ATOM      4  C   LIG    1       25.525  82.867 -13.682  0.00  0.00    +0.215 C 
ATOM      5  O   LIG    1       26.245  83.656 -14.736  0.00  0.00    -0.218 OA
ATOM      6  C   LIG    1       26.428  81.445 -14.043  0.00  0.00    +0.221 C 
ATOM      7  O   LIG    1       25.381  80.957 -15.013  0.00  0.00    -0.217 OA
ATOM      8  C   LIG    1       25.678  80.575 -12.737  0.00  0.00    +0.254 C 
ATOM      9  O   LIG    1       26.501  79.376 -13.065  0.00  0.00    -0.213 OA
ATOM     10  C   LIG    1       26.912  81.235 -11.640  0.00  0.00    +0.322 C 
ATOM     28  O   LIG    1       25.989  82.502 -11.415  0.00  0.00    -0.316 OA
BRANCH   3   2
ATOM      1  O   LIG    1       25.901  84.759 -10.756  0.00  0.00    -0.218 OA
ATOM      2  C   LIG    1       25.939  84.705 -12.134  0.00  0.00    +0.214 C 
ENDBRANCH   3   2
ENDBRANCH  11  10
ENDBRANCH  12  11
TORSDOF 5
ENDMDL
MODEL 7
REMARK VINA RESULT:      -6.4     43.226     46.867
REMARK  Name = 
REMARK                            x       y       z     vdW  Elec       q    Type
REMARK                         _______ _______ _______ _____ _____    ______ ____
ROOT
ATOM     12  C   LIG    1        6.452  37.641 -15.328  0.00  0.00    +0.145 A 
ATOM     13  C   LIG    1        6.751  38.948 -14.987  0.00  0.00    +0.037 A 
ATOM     14  C   LIG    1        7.367  39.775 -15.887  0.00  0.00    +0.006 A 
ATOM     24  C   LIG    1        7.701  39.317 -17.150  0.00  0.00    +0.042 A 
ATOM     25  C   LIG    1        7.407  38.017 -17.496  0.00  0.00    +0.199 A 
ATOM     26  O   LIG    1        7.755  37.565 -18.786  0.00  0.00    -0.286 OA
ATOM     27  C   LIG    1        6.792  37.211 -16.581  0.00  0.00    +0.079 A 
ENDROOT
BRANCH  14  15
ATOM     15  C   LIG    1        7.693  41.167 -15.548  0.00  0.00    +0.000 C 
ATOM     16  C   LIG    1        7.627  41.617 -14.311  0.00  0.00    +0.000 C 
BRANCH  16  17
ATOM     17  C   LIG    1        7.964  43.009 -14.037  0.00  0.00    +0.000 A 
ATOM     18  C   LIG    1        8.883  43.715 -14.777  0.00  0.00    +0.003 A 
ATOM     19  C   LIG    1        9.199  45.042 -14.509  0.00  0.00    +0.042 A 
ATOM     20  C   LIG    1        8.551  45.649 -13.454  0.00  0.00    +0.196 A 
ATOM     21  O   LIG    1        8.826  46.979 -13.137  0.00  0.00    -0.287 OA
ATOM     22  C   LIG    1        7.630  44.985 -12.693  0.00  0.00    +0.042 A 
ATOM     23  C   LIG    1        7.353  43.678 -12.996  0.00  0.00    +0.003 A 
ENDBRANCH  16  17
ENDBRANCH  14  15
BRANCH  12  11
ATOM     11  O   LIG    1        5.814  36.821 -14.366  0.00  0.00    -0.450 OA
BRANCH  11  10
ATOM      3  C   LIG    1        5.271  33.443 -15.061  0.00  0.00    +0.185 C 
ATOM      4  C   LIG    1        4.972  32.934 -13.404  0.00  0.00    +0.215 C 
ATOM      5  O   LIG    1        5.412  31.535 -13.724  0.00  0.00    -0.218 OA
ATOM      6  C   LIG    1        6.576  33.411 -12.999  0.00  0.00    +0.221 C 
ATOM      7  O   LIG    1        6.363  33.095 -11.539  0.00  0.00    -0.217 OA
ATOM      8  C   LIG    1        6.078  35.060 -12.752  0.00  0.00    +0.254 C 
ATOM      9  O   LIG    1        7.486  35.436 -12.436  0.00  0.00    -0.213 OA
ATOM     10  C   LIG    1        6.296  35.345 -14.493  0.00  0.00    +0.322 C 
ATOM     28  O   LIG    1        4.806  34.860 -14.727  0.00  0.00    -0.316 OA
BRANCH   3   2
ATOM      1  O   LIG    1        3.774  32.982 -16.896  0.00  0.00    -0.218 OA
ATOM      2  C   LIG    1        3.756  32.951 -15.518  0.00  0.00    +0.214 C 
ENDBRANCH   3   2
ENDBRANCH  11  10
ENDBRANCH  12  11
TORSDOF 5
ENDMDL
MODEL 8
REMARK VINA RESULT:      -6.4     28.782     32.606
REMARK  Name = 
REMARK                            x       y       z     vdW  Elec       q    Type
REMARK                         _______ _______ _______ _____ _____    ______ ____
ROOT
ATOM     12  C   LIG    1       10.975  58.008   3.755  0.00  0.00    +0.145 A 
ATOM     13  C   LIG    1       10.324  57.071   2.972  0.00  0.00    +0.037 A 
ATOM     14  C   LIG    1        9.990  57.364   1.677  0.00  0.00    +0.006 A 
ATOM     24  C   LIG    1       10.296  58.598   1.132  0.00  0.00    +0.042 A 
ATOM     25  C   LIG    1       10.943  59.536   1.905  0.00  0.00    +0.199 A 
ATOM     26  O   LIG    1       11.247  60.790   1.336  0.00  0.00    -0.286 OA
ATOM     27  C   LIG    1       11.266  59.222   3.195  0.00  0.00    +0.079 A 
ENDROOT
BRANCH  14  15
ATOM     15  C   LIG    1        9.300  56.384   0.827  0.00  0.00    +0.000 C 
ATOM     16  C   LIG    1        9.882  55.270   0.432  0.00  0.00    +0.000 C 
BRANCH  16  17
ATOM     17  C   LIG    1        9.145  54.337  -0.411  0.00  0.00    +0.000 A 
ATOM     18  C   LIG    1        8.372  53.320   0.097  0.00  0.00    +0.003 A 
ATOM     19  C   LIG    1        7.672  52.434  -0.714  0.00  0.00    +0.042 A 
ATOM     20  C   LIG    1        7.774  52.605  -2.079  0.00  0.00    +0.196 A 
ATOM     21  O   LIG    1        7.095  51.747  -2.944  0.00  0.00    -0.287 OA
ATOM     22  C   LIG    1        8.531  53.603  -2.627  0.00  0.00    +0.042 A 
ATOM     23  C   LIG    1        9.203  54.450  -1.786  0.00  0.00    +0.003 A 
ENDBRANCH  16  17
ENDBRANCH  14  15
BRANCH  12  11
ATOM     11  O   LIG    1       11.302  57.664   5.088  0.00  0.00    -0.450 OA
BRANCH  11  10
ATOM      3  C   LIG    1        8.692  58.463   7.264  0.00  0.00    +0.185 C 
ATOM      4  C   LIG    1        9.469  57.903   8.739  0.00  0.00    +0.215 C 
ATOM      5  O   LIG    1        8.135  57.671   9.389  0.00  0.00    -0.218 OA
ATOM      6  C   LIG    1        9.495  56.310   8.085  0.00  0.00    +0.221 C 
ATOM      7  O   LIG    1       10.255  55.772   9.272  0.00  0.00    -0.217 OA
ATOM      8  C   LIG    1       10.979  56.629   7.234  0.00  0.00    +0.254 C 
ATOM      9  O   LIG    1       10.947  55.251   6.666  0.00  0.00    -0.213 OA
ATOM     10  C   LIG    1       10.020  57.301   5.895  0.00  0.00    +0.322 C 
ATOM     28  O   LIG    1       10.055  58.709   6.620  0.00  0.00    -0.316 OA
BRANCH   3   2
ATOM      1  O   LIG    1        8.022  60.744   6.852  0.00  0.00    -0.218 OA
ATOM      2  C   LIG    1        8.591  60.004   7.866  0.00  0.00    +0.214 C 
ENDBRANCH   3   2
ENDBRANCH  11  10
ENDBRANCH  12  11
TORSDOF 5
ENDMDL
MODEL 9
REMARK VINA RESULT:      -6.4     16.472     20.681
REMARK  Name = 
REMARK                            x       y       z     vdW  Elec       q    Type
REMARK                         _______ _______ _______ _____ _____    ______ ____
ROOT
ATOM     12  C   LIG    1       16.537  65.592 -12.839  0.00  0.00    +0.145 A 
ATOM     13  C   LIG    1       15.693  66.616 -13.233  0.00  0.00    +0.037 A 
ATOM     14  C   LIG    1       15.833  67.871 -12.705  0.00  0.00    +0.006 A 
ATOM     24  C   LIG    1       16.819  68.135 -11.770  0.00  0.00    +0.042 A 
ATOM     25  C   LIG    1       17.662  67.122 -11.373  0.00  0.00    +0.199 A 
ATOM     26  O   LIG    1       18.661  67.407 -10.418  0.00  0.00    -0.286 OA
ATOM     27  C   LIG    1       17.503  65.877 -11.913  0.00  0.00    +0.079 A 
ENDROOT
BRANCH  14  15
ATOM     15  C   LIG    1       14.949  68.973 -13.108  0.00  0.00    +0.000 C 
ATOM     16  C   LIG    1       13.672  68.782 -13.368  0.00  0.00    +0.000 C 
BRANCH  16  17
ATOM     17  C   LIG    1       12.845  69.916 -13.764  0.00  0.00    +0.000 A 
ATOM     18  C   LIG    1       13.342  71.190 -13.907  0.00  0.00    +0.003 A 
ATOM     19  C   LIG    1       12.547  72.267 -14.283  0.00  0.00    +0.042 A 
ATOM     20  C   LIG    1       11.211  72.019 -14.516  0.00  0.00    +0.196 A 
ATOM     21  O   LIG    1       10.363  73.058 -14.897  0.00  0.00    -0.287 OA
ATOM     22  C   LIG    1       10.675  70.768 -14.386  0.00  0.00    +0.042 A 
ATOM     23  C   LIG    1       11.499  69.740 -14.012  0.00  0.00    +0.003 A 
ENDBRANCH  16  17
ENDBRANCH  14  15
BRANCH  12  11
ATOM     11  O   LIG    1       16.357  64.310 -13.411  0.00  0.00    -0.450 OA
BRANCH  11  10
ATOM      3  C   LIG    1       13.252  62.933 -12.606  0.00  0.00    +0.185 C 
ATOM      4  C   LIG    1       13.432  61.451 -13.539  0.00  0.00    +0.215 C 
ATOM      5  O   LIG    1       11.942  61.316 -13.666  0.00  0.00    -0.218 OA
ATOM      6  C   LIG    1       13.530  62.401 -14.972  0.00  0.00    +0.221 C 
ATOM      7  O   LIG    1       13.792  61.186 -15.828  0.00  0.00    -0.217 OA
ATOM      8  C   LIG    1       15.236  62.656 -14.748  0.00  0.00    +0.254 C 
ATOM      9  O   LIG    1       15.270  63.497 -15.979  0.00  0.00    -0.213 OA
ATOM     10  C   LIG    1       14.850  64.043 -13.703  0.00  0.00    +0.322 C 
ATOM     28  O   LIG    1       14.769  63.051 -12.471  0.00  0.00    -0.316 OA
BRANCH   3   2
ATOM      1  O   LIG    1       14.063  62.578 -10.362  0.00  0.00    -0.218 OA
ATOM      2  C   LIG    1       13.097  62.066 -11.202  0.00  0.00    +0.214 C 
ENDBRANCH   3   2
ENDBRANCH  11  10
ENDBRANCH  12  11
TORSDOF 5
ENDMDL
MODEL 10
REMARK VINA RESULT:      -6.3     41.986     45.417
REMARK  Name = 
REMARK                            x       y       z     vdW  Elec       q    Type
REMARK                         _______ _______ _______ _____ _____    ______ ____
ROOT
ATOM     12  C   LIG    1        7.292  40.419 -16.274  0.00  0.00    +0.145 A 
ATOM     13  C   LIG    1        7.909  39.531 -17.137  0.00  0.00    +0.037 A 
ATOM     14  C   LIG    1        7.497  38.227 -17.201  0.00  0.00    +0.006 A 
ATOM     24  C   LIG    1        6.458  37.777 -16.405  0.00  0.00    +0.042 A 
ATOM     25  C   LIG    1        5.839  38.655 -15.544  0.00  0.00    +0.199 A 
ATOM     26  O   LIG    1        4.782  38.181 -14.738  0.00  0.00    -0.286 OA
ATOM     27  C   LIG    1        6.267  39.951 -15.497  0.00  0.00    +0.079 A 
ENDROOT
BRANCH  14  15
ATOM     15  C   LIG    1        8.138  37.267 -18.110  0.00  0.00    +0.000 C 
ATOM     16  C   LIG    1        8.148  35.973 -17.863  0.00  0.00    +0.000 C 
BRANCH  16  17
ATOM     17  C   LIG    1        8.800  35.070 -18.803  0.00  0.00    +0.000 A 
ATOM     18  C   LIG    1        9.180  35.454 -20.067  0.00  0.00    +0.003 A 
ATOM     19  C   LIG    1        9.801  34.587 -20.959  0.00  0.00    +0.042 A 
ATOM     20  C   LIG    1       10.032  33.295 -20.532  0.00  0.00    +0.196 A 
ATOM     21  O   LIG    1       10.652  32.379 -21.382  0.00  0.00    -0.287 OA
ATOM     22  C   LIG    1        9.671  32.871 -19.284  0.00  0.00    +0.042 A 
ATOM     23  C   LIG    1        9.061  33.763 -18.442  0.00  0.00    +0.003 A 
ENDBRANCH  16  17
ENDBRANCH  14  15
BRANCH  12  11
ATOM     11  O   LIG    1        7.749  41.758 -16.240  0.00  0.00    -0.450 OA
BRANCH  11  10
ATOM      3  C   LIG    1        6.263  43.636 -13.701  0.00  0.00    +0.185 C 
ATOM      4  C   LIG    1        7.178  45.115 -13.971  0.00  0.00    +0.215 C 
ATOM      5  O   LIG    1        6.978  45.533 -12.543  0.00  0.00    -0.218 OA
ATOM      6  C   LIG    1        8.620  44.258 -13.582  0.00  0.00    +0.221 C 
ATOM      7  O   LIG    1        9.485  45.454 -13.894  0.00  0.00    -0.217 OA
ATOM      8  C   LIG    1        8.775  43.674 -15.213  0.00  0.00    +0.254 C 
ATOM      9  O   LIG    1       10.003  42.923 -14.826  0.00  0.00    -0.213 OA
ATOM     10  C   LIG    1        7.704  42.320 -14.788  0.00  0.00    +0.322 C 
ATOM     28  O   LIG    1        6.461  43.229 -15.160  0.00  0.00    -0.316 OA
BRANCH   3   2
ATOM      1  O   LIG    1        3.947  43.923 -13.090  0.00  0.00    -0.218 OA
ATOM      2  C   LIG    1        4.839  44.425 -14.013  0.00  0.00    +0.214 C 
ENDBRANCH   3   2
ENDBRANCH  11  10
ENDBRANCH  12  11
TORSDOF 5
ENDMDL
