MODEL 1
REMARK VINA RESULT:      -7.0      0.000      0.000
REMARK  Name = 
REMARK                            x       y       z     vdW  Elec       q    Type
REMARK                         _______ _______ _______ _____ _____    ______ ____
ROOT
ATOM     12  C   LIG    1        4.269  59.767   8.858  0.00  0.00    +0.141 A 
ATOM     13  C   LIG    1        4.402  61.017   9.386  0.00  0.00    +0.037 A 
ATOM     14  C   LIG    1        3.386  61.635  10.049  0.00  0.00    +0.003 A 
ATOM     15  C   LIG    1        2.130  61.030  10.236  0.00  0.00    +0.000 A 
ATOM     26  C   LIG    1        2.025  59.798   9.705  0.00  0.00    +0.003 A 
ATOM     27  C   LIG    1        3.049  59.130   9.017  0.00  0.00    +0.037 A 
ENDROOT
BRANCH  15  16
ATOM     16  C   LIG    1        1.254  61.886  10.957  0.00  0.00    +0.000 C 
ATOM     17  C   LIG    1        0.603  61.800  11.986  0.00  0.00    +0.000 C 
BRANCH  17  18
ATOM     18  C   LIG    1        0.610  60.636  12.777  0.00  0.00    +0.006 A 
ATOM     19  C   LIG    1       -0.588  59.970  12.851  0.00  0.00    +0.042 A 
ATOM     20  C   LIG    1       -0.706  58.796  13.608  0.00  0.00    +0.199 A 
ATOM     21  O   LIG    1       -1.933  58.155  13.657  0.00  0.00    -0.286 OA
ATOM     22  C   LIG    1        0.377  58.315  14.273  0.00  0.00    +0.084 A 
ATOM     23  C   LIG    1        1.595  58.959  14.220  0.00  0.00    +0.199 A 
ATOM     24  O   LIG    1        2.714  58.486  14.892  0.00  0.00    -0.286 OA
ATOM     25  C   LIG    1        1.633  60.112  13.453  0.00  0.00    +0.042 A 
ENDBRANCH  17  18
ENDBRANCH  15  16
BRANCH  12  11
ATOM     11  O   LIG    1        5.283  59.200   8.218  0.00  0.00    -0.450 OA
BRANCH  11  10
ATOM      3  C   LIG    1        8.546  58.286   8.573  0.00  0.00    +0.185 C 
ATOM      4  C   LIG    1        9.109  58.619   6.997  0.00  0.00    +0.215 C 
ATOM      5  O   LIG    1        8.776  57.328   6.341  0.00  0.00    -0.218 OA
ATOM      6  C   LIG    1        7.705  59.356   6.423  0.00  0.00    +0.221 C 
ATOM      7  O   LIG    1        8.451  60.429   5.712  0.00  0.00    -0.217 OA
ATOM      8  C   LIG    1        7.310  60.345   7.702  0.00  0.00    +0.254 C 
ATOM      9  O   LIG    1        8.599  60.523   8.391  0.00  0.00    -0.213 OA
ATOM     10  C   LIG    1        6.698  59.220   8.804  0.00  0.00    +0.322 C 
ATOM     28  O   LIG    1        7.142  57.925   8.175  0.00  0.00    -0.316 OA
BRANCH   3   2
ATOM      1  O   LIG    1        8.254  56.103   9.554  0.00  0.00    -0.218 OA
ATOM      2  C   LIG    1        9.096  56.761   8.717  0.00  0.00    +0.214 C 
ENDBRANCH   3   2
ENDBRANCH  11  10
ENDBRANCH  12  11
TORSDOF 5
ENDMDL
MODEL 2
REMARK VINA RESULT:      -6.9     38.052     40.471
REMARK  Name = 
REMARK                            x       y       z     vdW  Elec       q    Type
REMARK                         _______ _______ _______ _____ _____    ______ ____
ROOT
ATOM     12  C   LIG    1       30.847  80.189 -11.992  0.00  0.00    +0.141 A 
ATOM     13  C   LIG    1       30.294  79.334 -12.898  0.00  0.00    +0.037 A 
ATOM     14  C   LIG    1       28.951  79.127 -12.974  0.00  0.00    +0.003 A 
ATOM     15  C   LIG    1       28.039  79.780 -12.124  0.00  0.00    +0.000 A 
ATOM     26  C   LIG    1       28.610  80.618 -11.239  0.00  0.00    +0.003 A 
ATOM     27  C   LIG    1       29.988  80.856 -11.133  0.00  0.00    +0.037 A 
ENDROOT
BRANCH  15  16
ATOM     16  C   LIG    1       26.704  79.388 -12.411  0.00  0.00    +0.000 C 
ATOM     17  C   LIG    1       25.772  79.862 -13.042  0.00  0.00    +0.000 C 
BRANCH  17  18
ATOM     18  C   LIG    1       25.879  81.095 -13.712  0.00  0.00    +0.006 A 
ATOM     19  C   LIG    1       25.761  82.207 -12.916  0.00  0.00    +0.042 A 
ATOM     20  C   LIG    1       25.850  83.492 -13.468  0.00  0.00    +0.199 A 
ATOM     21  O   LIG    1       25.726  84.589 -12.630  0.00  0.00    -0.286 OA
ATOM     22  C   LIG    1       26.054  83.636 -14.804  0.00  0.00    +0.084 A 
ATOM     23  C   LIG    1       26.177  82.540 -15.633  0.00  0.00    +0.199 A 
ATOM     24  O   LIG    1       26.385  82.663 -16.999  0.00  0.00    -0.286 OA
ATOM     25  C   LIG    1       26.077  81.304 -15.013  0.00  0.00    +0.042 A 
ENDBRANCH  17  18
ENDBRANCH  15  16
BRANCH  12  11
ATOM     11  O   LIG    1       32.162  80.362 -11.951  0.00  0.00    -0.450 OA
BRANCH  11  10
ATOM      3  C   LIG    1       34.200  78.709  -9.778  0.00  0.00    +0.185 C 
ATOM      4  C   LIG    1       35.594  78.560 -10.751  0.00  0.00    +0.215 C 
ATOM      5  O   LIG    1       35.260  77.298 -11.463  0.00  0.00    -0.218 OA
ATOM      6  C   LIG    1       35.057  79.512 -12.036  0.00  0.00    +0.221 C 
ATOM      7  O   LIG    1       36.373  80.185 -12.206  0.00  0.00    -0.217 OA
ATOM      8  C   LIG    1       34.390  80.805 -11.227  0.00  0.00    +0.254 C 
ATOM      9  O   LIG    1       35.079  80.770  -9.927  0.00  0.00    -0.213 OA
ATOM     10  C   LIG    1       32.951  80.125 -10.661  0.00  0.00    +0.322 C 
ATOM     28  O   LIG    1       33.206  78.660 -10.905  0.00  0.00    -0.316 OA
BRANCH   3   2
ATOM      1  O   LIG    1       32.717  76.893  -9.215  0.00  0.00    -0.218 OA
ATOM      2  C   LIG    1       34.045  77.154  -9.325  0.00  0.00    +0.214 C 
ENDBRANCH   3   2
ENDBRANCH  11  10
ENDBRANCH  12  11
TORSDOF 5
ENDMDL
MODEL 3
REMARK VINA RESULT:      -6.7      1.353      1.875
REMARK  Name = 
REMARK                            x       y       z     vdW  Elec       q    Type
REMARK                         _______ _______ _______ _____ _____    ______ ____
ROOT
ATOM     12  C   LIG    1        4.242  59.843   8.864  0.00  0.00    +0.141 A 
ATOM     13  C   LIG    1        4.377  61.044   9.494  0.00  0.00    +0.037 A 
ATOM     14  C   LIG    1        3.333  61.657  10.116  0.00  0.00    +0.003 A 
ATOM     15  C   LIG    1        2.044  61.096  10.154  0.00  0.00    +0.000 A 
ATOM     26  C   LIG    1        1.938  59.912   9.525  0.00  0.00    +0.003 A 
ATOM     27  C   LIG    1        2.990  59.251   8.874  0.00  0.00    +0.037 A 
ENDROOT
BRANCH  15  16
ATOM     16  C   LIG    1        1.143  61.936  10.863  0.00  0.00    +0.000 C 
ATOM     17  C   LIG    1        0.500  61.848  11.898  0.00  0.00    +0.000 C 
BRANCH  17  18
ATOM     18  C   LIG    1        0.550  60.699  12.710  0.00  0.00    +0.006 A 
ATOM     19  C   LIG    1       -0.610  59.968  12.763  0.00  0.00    +0.042 A 
ATOM     20  C   LIG    1       -0.684  58.803  13.538  0.00  0.00    +0.199 A 
ATOM     21  O   LIG    1       -1.873  58.093  13.565  0.00  0.00    -0.286 OA
ATOM     22  C   LIG    1        0.405  58.396  14.243  0.00  0.00    +0.084 A 
ATOM     23  C   LIG    1        1.586  59.107  14.212  0.00  0.00    +0.199 A 
ATOM     24  O   LIG    1        2.710  58.711  14.923  0.00  0.00    -0.286 OA
ATOM     25  C   LIG    1        1.581  60.247  13.424  0.00  0.00    +0.042 A 
ENDBRANCH  17  18
ENDBRANCH  15  16
BRANCH  12  11
ATOM     11  O   LIG    1        5.285  59.279   8.269  0.00  0.00    -0.450 OA
BRANCH  11  10
ATOM      3  C   LIG    1        6.737  56.265   7.622  0.00  0.00    +0.185 C 
ATOM      4  C   LIG    1        8.380  56.713   7.720  0.00  0.00    +0.215 C 
ATOM      5  O   LIG    1        8.594  57.163   6.319  0.00  0.00    -0.218 OA
ATOM      6  C   LIG    1        8.137  58.290   8.266  0.00  0.00    +0.221 C 
ATOM      7  O   LIG    1        9.253  58.219   9.247  0.00  0.00    -0.217 OA
ATOM      8  C   LIG    1        6.970  58.056   9.430  0.00  0.00    +0.254 C 
ATOM      9  O   LIG    1        7.152  56.642   9.796  0.00  0.00    -0.213 OA
ATOM     10  C   LIG    1        5.604  57.796   8.470  0.00  0.00    +0.322 C 
ATOM     28  O   LIG    1        6.234  57.589   7.117  0.00  0.00    -0.316 OA
BRANCH   3   2
ATOM      1  O   LIG    1        6.687  54.180   6.412  0.00  0.00    -0.218 OA
ATOM      2  C   LIG    1        6.768  55.516   6.178  0.00  0.00    +0.214 C 
ENDBRANCH   3   2
ENDBRANCH  11  10
ENDBRANCH  12  11
TORSDOF 5
ENDMDL
MODEL 4
REMARK VINA RESULT:      -6.7     36.995     39.375
REMARK  Name = 
REMARK                            x       y       z     vdW  Elec       q    Type
REMARK                         _______ _______ _______ _____ _____    ______ ____
ROOT
ATOM     12  C   LIG    1       29.890  79.509 -12.075  0.00  0.00    +0.141 A 
ATOM     13  C   LIG    1       31.058  79.501 -12.778  0.00  0.00    +0.037 A 
ATOM     14  C   LIG    1       32.265  79.318 -12.176  0.00  0.00    +0.003 A 
ATOM     15  C   LIG    1       32.393  79.126 -10.788  0.00  0.00    +0.000 A 
ATOM     26  C   LIG    1       31.226  79.138 -10.118  0.00  0.00    +0.003 A 
ATOM     27  C   LIG    1       29.966  79.323 -10.704  0.00  0.00    +0.037 A 
ENDROOT
BRANCH  15  16
ATOM     16  C   LIG    1       33.756  78.960 -10.420  0.00  0.00    +0.000 C 
ATOM     17  C   LIG    1       34.367  78.253  -9.635  0.00  0.00    +0.000 C 
BRANCH  17  18
ATOM     18  C   LIG    1       33.714  77.313  -8.815  0.00  0.00    +0.006 A 
ATOM     19  C   LIG    1       33.547  77.693  -7.507  0.00  0.00    +0.042 A 
ATOM     20  C   LIG    1       32.910  76.842  -6.593  0.00  0.00    +0.199 A 
ATOM     21  O   LIG    1       32.761  77.263  -5.282  0.00  0.00    -0.286 OA
ATOM     22  C   LIG    1       32.455  75.631  -7.010  0.00  0.00    +0.084 A 
ATOM     23  C   LIG    1       32.606  75.218  -8.317  0.00  0.00    +0.199 A 
ATOM     24  O   LIG    1       32.150  73.986  -8.764  0.00  0.00    -0.286 OA
ATOM     25  C   LIG    1       33.246  76.114  -9.159  0.00  0.00    +0.042 A 
ENDBRANCH  17  18
ENDBRANCH  15  16
BRANCH  12  11
ATOM     11  O   LIG    1       28.734  79.691 -12.700  0.00  0.00    -0.450 OA
BRANCH  11  10
ATOM      3  C   LIG    1       26.450  82.060 -11.819  0.00  0.00    +0.185 C 
ATOM      4  C   LIG    1       25.794  82.409 -13.354  0.00  0.00    +0.215 C 
ATOM      5  O   LIG    1       26.760  83.448 -13.802  0.00  0.00    -0.218 OA
ATOM      6  C   LIG    1       26.594  81.194 -14.207  0.00  0.00    +0.221 C 
ATOM      7  O   LIG    1       25.393  80.842 -15.010  0.00  0.00    -0.217 OA
ATOM      8  C   LIG    1       26.408  79.898 -13.180  0.00  0.00    +0.254 C 
ATOM      9  O   LIG    1       25.221  80.271 -12.393  0.00  0.00    -0.213 OA
ATOM     10  C   LIG    1       27.524  80.281 -11.971  0.00  0.00    +0.322 C 
ATOM     28  O   LIG    1       27.832  81.718 -12.303  0.00  0.00    -0.316 OA
BRANCH   3   2
ATOM      1  O   LIG    1       27.957  83.533 -10.647  0.00  0.00    -0.218 OA
ATOM      2  C   LIG    1       26.791  83.578 -11.342  0.00  0.00    +0.214 C 
ENDBRANCH   3   2
ENDBRANCH  11  10
ENDBRANCH  12  11
TORSDOF 5
ENDMDL
MODEL 5
REMARK VINA RESULT:      -6.7     17.946     21.525
REMARK  Name = 
REMARK                            x       y       z     vdW  Elec       q    Type
REMARK                         _______ _______ _______ _____ _____    ______ ____
ROOT
ATOM     12  C   LIG    1       20.730  69.714  13.078  0.00  0.00    +0.141 A 
ATOM     13  C   LIG    1       20.089  70.814  13.564  0.00  0.00    +0.037 A 
ATOM     14  C   LIG    1       20.683  71.674  14.436  0.00  0.00    +0.003 A 
ATOM     15  C   LIG    1       21.999  71.489  14.897  0.00  0.00    +0.000 A 
ATOM     26  C   LIG    1       22.610  70.396  14.403  0.00  0.00    +0.003 A 
ATOM     27  C   LIG    1       22.030  69.490  13.504  0.00  0.00    +0.037 A 
ENDROOT
BRANCH  15  16
ATOM     16  C   LIG    1       22.375  72.524  15.795  0.00  0.00    +0.000 C 
ATOM     17  C   LIG    1       23.071  73.525  15.729  0.00  0.00    +0.000 C 
BRANCH  17  18
ATOM     18  C   LIG    1       23.736  73.893  14.544  0.00  0.00    +0.006 A 
ATOM     19  C   LIG    1       25.030  73.447  14.437  0.00  0.00    +0.042 A 
ATOM     20  C   LIG    1       25.796  73.748  13.302  0.00  0.00    +0.199 A 
ATOM     21  O   LIG    1       27.098  73.279  13.232  0.00  0.00    -0.286 OA
ATOM     22  C   LIG    1       25.250  74.488  12.302  0.00  0.00    +0.084 A 
ATOM     23  C   LIG    1       23.953  74.952  12.378  0.00  0.00    +0.199 A 
ATOM     24  O   LIG    1       23.376  75.710  11.369  0.00  0.00    -0.286 OA
ATOM     25  C   LIG    1       23.261  74.614  13.530  0.00  0.00    +0.042 A 
ENDBRANCH  17  18
ENDBRANCH  15  16
BRANCH  12  11
ATOM     11  O   LIG    1       20.115  68.901  12.230  0.00  0.00    -0.450 OA
BRANCH  11  10
ATOM      3  C   LIG    1       17.092  67.577  11.383  0.00  0.00    +0.185 C 
ATOM      4  C   LIG    1       17.490  65.918  11.405  0.00  0.00    +0.215 C 
ATOM      5  O   LIG    1       17.992  65.769  10.014  0.00  0.00    -0.218 OA
ATOM      6  C   LIG    1       19.049  66.084  12.026  0.00  0.00    +0.221 C 
ATOM      7  O   LIG    1       18.907  64.918  12.939  0.00  0.00    -0.217 OA
ATOM      8  C   LIG    1       18.799  67.191  13.244  0.00  0.00    +0.254 C 
ATOM      9  O   LIG    1       17.366  67.032  13.543  0.00  0.00    -0.213 OA
ATOM     10  C   LIG    1       18.616  68.615  12.354  0.00  0.00    +0.322 C 
ATOM     28  O   LIG    1       18.449  68.068  10.960  0.00  0.00    -0.316 OA
BRANCH   3   2
ATOM      1  O   LIG    1       15.056  67.669  10.093  0.00  0.00    -0.218 OA
ATOM      2  C   LIG    1       16.402  67.648   9.910  0.00  0.00    +0.214 C 
ENDBRANCH   3   2
ENDBRANCH  11  10
ENDBRANCH  12  11
TORSDOF 5
ENDMDL
MODEL 6
REMARK VINA RESULT:      -6.6     17.031     20.331
REMARK  Name = 
REMARK                            x       y       z     vdW  Elec       q    Type
REMARK                         _______ _______ _______ _____ _____    ______ ____
ROOT
ATOM     12  C   LIG    1       19.338  67.398  14.672  0.00  0.00    +0.141 A 
ATOM     13  C   LIG    1       19.257  68.168  13.550  0.00  0.00    +0.037 A 
ATOM     14  C   LIG    1       19.660  69.468  13.533  0.00  0.00    +0.003 A 
ATOM     15  C   LIG    1       20.187  70.108  14.670  0.00  0.00    +0.000 A 
ATOM     26  C   LIG    1       20.256  69.326  15.763  0.00  0.00    +0.003 A 
ATOM     27  C   LIG    1       19.851  67.985  15.817  0.00  0.00    +0.037 A 
ENDROOT
BRANCH  15  16
ATOM     16  C   LIG    1       20.528  71.458  14.384  0.00  0.00    +0.000 C 
ATOM     17  C   LIG    1       21.556  72.117  14.389  0.00  0.00    +0.000 C 
BRANCH  17  18
ATOM     18  C   LIG    1       22.799  71.557  14.740  0.00  0.00    +0.006 A 
ATOM     19  C   LIG    1       23.525  71.043  13.696  0.00  0.00    +0.042 A 
ATOM     20  C   LIG    1       24.780  70.458  13.919  0.00  0.00    +0.199 A 
ATOM     21  O   LIG    1       25.481  69.950  12.837  0.00  0.00    -0.286 OA
ATOM     22  C   LIG    1       25.278  70.401  15.182  0.00  0.00    +0.084 A 
ATOM     23  C   LIG    1       24.574  70.909  16.254  0.00  0.00    +0.199 A 
ATOM     24  O   LIG    1       25.062  70.862  17.552  0.00  0.00    -0.286 OA
ATOM     25  C   LIG    1       23.343  71.470  15.953  0.00  0.00    +0.042 A 
ENDBRANCH  17  18
ENDBRANCH  15  16
BRANCH  12  11
ATOM     11  O   LIG    1       18.934  66.134  14.646  0.00  0.00    -0.450 OA
BRANCH  11  10
ATOM      3  C   LIG    1       19.734  62.994  15.699  0.00  0.00    +0.185 C 
ATOM      4  C   LIG    1       20.372  62.361  14.249  0.00  0.00    +0.215 C 
ATOM      5  O   LIG    1       19.116  61.875  13.621  0.00  0.00    -0.218 OA
ATOM      6  C   LIG    1       20.346  63.795  13.362  0.00  0.00    +0.221 C 
ATOM      7  O   LIG    1       21.678  63.546  12.748  0.00  0.00    -0.217 OA
ATOM      8  C   LIG    1       20.952  64.876  14.473  0.00  0.00    +0.254 C 
ATOM      9  O   LIG    1       21.711  64.012  15.392  0.00  0.00    -0.213 OA
ATOM     10  C   LIG    1       19.622  65.066  15.498  0.00  0.00    +0.322 C 
ATOM     28  O   LIG    1       18.746  63.925  15.052  0.00  0.00    -0.316 OA
BRANCH   3   2
ATOM      1  O   LIG    1       17.490  62.399  16.352  0.00  0.00    -0.218 OA
ATOM      2  C   LIG    1       18.674  61.809  16.044  0.00  0.00    +0.214 C 
ENDBRANCH   3   2
ENDBRANCH  11  10
ENDBRANCH  12  11
TORSDOF 5
ENDMDL
MODEL 7
REMARK VINA RESULT:      -6.6     25.603     29.006
REMARK  Name = 
REMARK                            x       y       z     vdW  Elec       q    Type
REMARK                         _______ _______ _______ _____ _____    ______ ____
ROOT
ATOM     12  C   LIG    1       15.369  62.099 -14.802  0.00  0.00    +0.141 A 
ATOM     13  C   LIG    1       14.814  61.134 -14.016  0.00  0.00    +0.037 A 
ATOM     14  C   LIG    1       14.188  60.044 -14.539  0.00  0.00    +0.003 A 
ATOM     15  C   LIG    1       14.069  59.837 -15.925  0.00  0.00    +0.000 A 
ATOM     26  C   LIG    1       14.625  60.804 -16.679  0.00  0.00    +0.003 A 
ATOM     27  C   LIG    1       15.278  61.939 -16.175  0.00  0.00    +0.037 A 
ENDROOT
BRANCH  15  16
ATOM     16  C   LIG    1       13.375  58.629 -16.203  0.00  0.00    +0.000 C 
ATOM     17  C   LIG    1       13.533  57.688 -16.965  0.00  0.00    +0.000 C 
BRANCH  17  18
ATOM     18  C   LIG    1       14.621  57.625 -17.856  0.00  0.00    +0.006 A 
ATOM     19  C   LIG    1       14.391  58.155 -19.100  0.00  0.00    +0.042 A 
ATOM     20  C   LIG    1       15.398  58.151 -20.075  0.00  0.00    +0.199 A 
ATOM     21  O   LIG    1       15.125  58.695 -21.319  0.00  0.00    -0.286 OA
ATOM     22  C   LIG    1       16.614  57.618 -19.781  0.00  0.00    +0.084 A 
ATOM     23  C   LIG    1       16.878  57.078 -18.540  0.00  0.00    +0.199 A 
ATOM     24  O   LIG    1       18.111  56.528 -18.218  0.00  0.00    -0.286 OA
ATOM     25  C   LIG    1       15.833  57.118 -17.631  0.00  0.00    +0.042 A 
ENDBRANCH  17  18
ENDBRANCH  15  16
BRANCH  12  11
ATOM     11  O   LIG    1       15.971  63.146 -14.252  0.00  0.00    -0.450 OA
BRANCH  11  10
ATOM      3  C   LIG    1       15.677  65.549 -11.854  0.00  0.00    +0.185 C 
ATOM      4  C   LIG    1       15.753  66.942 -12.836  0.00  0.00    +0.215 C 
ATOM      5  O   LIG    1       17.228  67.121 -12.893  0.00  0.00    -0.218 OA
ATOM      6  C   LIG    1       15.719  66.153 -14.326  0.00  0.00    +0.221 C 
ATOM      7  O   LIG    1       14.785  67.141 -14.930  0.00  0.00    -0.217 OA
ATOM      8  C   LIG    1       14.519  65.028 -14.071  0.00  0.00    +0.254 C 
ATOM      9  O   LIG    1       13.735  65.626 -12.978  0.00  0.00    -0.213 OA
ATOM     10  C   LIG    1       15.325  63.911 -13.094  0.00  0.00    +0.322 C 
ATOM     28  O   LIG    1       16.559  64.690 -12.718  0.00  0.00    -0.316 OA
BRANCH   3   2
ATOM      1  O   LIG    1       17.572  64.842 -10.541  0.00  0.00    -0.218 OA
ATOM      2  C   LIG    1       16.818  65.949 -10.765  0.00  0.00    +0.214 C 
ENDBRANCH   3   2
ENDBRANCH  11  10
ENDBRANCH  12  11
TORSDOF 5
ENDMDL
MODEL 8
REMARK VINA RESULT:      -6.5      3.307      9.381
REMARK  Name = 
REMARK                            x       y       z     vdW  Elec       q    Type
REMARK                         _______ _______ _______ _____ _____    ______ ____
ROOT
ATOM     12  C   LIG    1        6.764  59.332   8.133  0.00  0.00    +0.141 A 
ATOM     13  C   LIG    1        7.097  58.903   6.883  0.00  0.00    +0.037 A 
ATOM     14  C   LIG    1        7.928  57.846   6.676  0.00  0.00    +0.003 A 
ATOM     15  C   LIG    1        8.502  57.121   7.737  0.00  0.00    +0.000 A 
ATOM     26  C   LIG    1        8.158  57.563   8.960  0.00  0.00    +0.003 A 
ATOM     27  C   LIG    1        7.305  58.648   9.210  0.00  0.00    +0.037 A 
ENDROOT
BRANCH  15  16
ATOM     16  C   LIG    1        9.327  56.071   7.249  0.00  0.00    +0.000 C 
ATOM     17  C   LIG    1       10.518  55.931   7.022  0.00  0.00    +0.000 C 
BRANCH  17  18
ATOM     18  C   LIG    1       11.444  56.968   7.243  0.00  0.00    +0.006 A 
ATOM     19  C   LIG    1       12.097  56.924   8.449  0.00  0.00    +0.042 A 
ATOM     20  C   LIG    1       13.044  57.902   8.784  0.00  0.00    +0.199 A 
ATOM     21  O   LIG    1       13.681  57.821  10.012  0.00  0.00    -0.286 OA
ATOM     22  C   LIG    1       13.315  58.902   7.905  0.00  0.00    +0.084 A 
ATOM     23  C   LIG    1       12.677  58.976   6.684  0.00  0.00    +0.199 A 
ATOM     24  O   LIG    1       12.938  59.989   5.771  0.00  0.00    -0.286 OA
ATOM     25  C   LIG    1       11.755  57.974   6.426  0.00  0.00    +0.042 A 
ENDBRANCH  17  18
ENDBRANCH  15  16
BRANCH  12  11
ATOM     11  O   LIG    1        5.950  60.367   8.291  0.00  0.00    -0.450 OA
BRANCH  11  10
ATOM      3  C   LIG    1        2.576  59.976   8.017  0.00  0.00    +0.185 C 
ATOM      4  C   LIG    1        2.066  60.996   9.286  0.00  0.00    +0.215 C 
ATOM      5  O   LIG    1        2.128  60.030  10.414  0.00  0.00    -0.218 OA
ATOM      6  C   LIG    1        3.580  61.640   9.660  0.00  0.00    +0.221 C 
ATOM      7  O   LIG    1        3.050  63.019   9.835  0.00  0.00    -0.217 OA
ATOM      8  C   LIG    1        4.182  61.960   8.141  0.00  0.00    +0.254 C 
ATOM      9  O   LIG    1        2.964  62.076   7.323  0.00  0.00    -0.213 OA
ATOM     10  C   LIG    1        4.576  60.404   7.616  0.00  0.00    +0.322 C 
ATOM     28  O   LIG    1        3.875  59.561   8.649  0.00  0.00    -0.316 OA
BRANCH   3   2
ATOM      1  O   LIG    1        1.011  58.275   7.331  0.00  0.00    -0.218 OA
ATOM      2  C   LIG    1        1.738  58.640   8.418  0.00  0.00    +0.214 C 
ENDBRANCH   3   2
ENDBRANCH  11  10
ENDBRANCH  12  11
TORSDOF 5
ENDMDL
MODEL 9
REMARK VINA RESULT:      -6.5      2.328      3.699
REMARK  Name = 
REMARK                            x       y       z     vdW  Elec       q    Type
REMARK                         _______ _______ _______ _____ _____    ______ ____
ROOT
ATOM     12  C   LIG    1        6.532  57.660  10.055  0.00  0.00    +0.141 A 
ATOM     13  C   LIG    1        6.021  56.585  10.719  0.00  0.00    +0.037 A 
ATOM     14  C   LIG    1        4.682  56.360  10.811  0.00  0.00    +0.003 A 
ATOM     15  C   LIG    1        3.732  57.218  10.229  0.00  0.00    +0.000 A 
ATOM     26  C   LIG    1        4.262  58.271   9.580  0.00  0.00    +0.003 A 
ATOM     27  C   LIG    1        5.634  58.535   9.464  0.00  0.00    +0.037 A 
ENDROOT
BRANCH  15  16
ATOM     16  C   LIG    1        2.410  56.756  10.473  0.00  0.00    +0.000 C 
ATOM     17  C   LIG    1        1.452  57.154  11.117  0.00  0.00    +0.000 C 
BRANCH  17  18
ATOM     18  C   LIG    1        1.498  58.349  11.858  0.00  0.00    +0.006 A 
ATOM     19  C   LIG    1        1.930  58.219  13.154  0.00  0.00    +0.042 A 
ATOM     20  C   LIG    1        2.019  59.338  13.993  0.00  0.00    +0.199 A 
ATOM     21  O   LIG    1        2.459  59.163  15.295  0.00  0.00    -0.286 OA
ATOM     22  C   LIG    1        1.674  60.563  13.515  0.00  0.00    +0.084 A 
ATOM     23  C   LIG    1        1.237  60.730  12.218  0.00  0.00    +0.199 A 
ATOM     24  O   LIG    1        0.880  61.971  11.709  0.00  0.00    -0.286 OA
ATOM     25  C   LIG    1        1.175  59.577  11.452  0.00  0.00    +0.042 A 
ENDBRANCH  17  18
ENDBRANCH  15  16
BRANCH  12  11
ATOM     11  O   LIG    1        7.844  57.844   9.988  0.00  0.00    -0.450 OA
BRANCH  11  10
ATOM      3  C   LIG    1       10.166  58.117   7.510  0.00  0.00    +0.185 C 
ATOM      4  C   LIG    1       10.058  56.550   6.843  0.00  0.00    +0.215 C 
ATOM      5  O   LIG    1       11.022  55.842   7.725  0.00  0.00    -0.218 OA
ATOM      6  C   LIG    1        8.734  56.027   7.748  0.00  0.00    +0.221 C 
ATOM      7  O   LIG    1        8.092  55.353   6.588  0.00  0.00    -0.217 OA
ATOM      8  C   LIG    1        7.733  57.353   7.658  0.00  0.00    +0.254 C 
ATOM      9  O   LIG    1        8.196  58.032   6.436  0.00  0.00    -0.213 OA
ATOM     10  C   LIG    1        8.500  58.412   8.727  0.00  0.00    +0.322 C 
ATOM     28  O   LIG    1        9.825  57.721   8.919  0.00  0.00    -0.316 OA
BRANCH   3   2
ATOM      1  O   LIG    1       12.211  59.347   7.164  0.00  0.00    -0.218 OA
ATOM      2  C   LIG    1       11.778  58.186   7.721  0.00  0.00    +0.214 C 
ENDBRANCH   3   2
ENDBRANCH  11  10
ENDBRANCH  12  11
TORSDOF 5
ENDMDL
MODEL 10
REMARK VINA RESULT:      -6.5     28.689     34.950
REMARK  Name = 
REMARK                            x       y       z     vdW  Elec       q    Type
REMARK                         _______ _______ _______ _____ _____    ______ ____
ROOT
ATOM     12  C   LIG    1       31.842  59.154  -8.455  0.00  0.00    +0.141 A 
ATOM     13  C   LIG    1       31.497  60.129  -9.342  0.00  0.00    +0.037 A 
ATOM     14  C   LIG    1       32.416  60.742 -10.138  0.00  0.00    +0.003 A 
ATOM     15  C   LIG    1       33.784  60.414 -10.101  0.00  0.00    +0.000 A 
ATOM     26  C   LIG    1       34.097  59.449  -9.217  0.00  0.00    +0.003 A 
ATOM     27  C   LIG    1       33.178  58.796  -8.382  0.00  0.00    +0.037 A 
ENDROOT
BRANCH  15  16
ATOM     16  C   LIG    1       34.522  61.199 -11.027  0.00  0.00    +0.000 C 
ATOM     17  C   LIG    1       35.023  61.011 -12.125  0.00  0.00    +0.000 C 
BRANCH  17  18
ATOM     18  C   LIG    1       34.940  59.766 -12.778  0.00  0.00    +0.006 A 
ATOM     19  C   LIG    1       36.143  59.153 -13.024  0.00  0.00    +0.042 A 
ATOM     20  C   LIG    1       36.191  57.909 -13.668  0.00  0.00    +0.199 A 
ATOM     21  O   LIG    1       37.425  57.323 -13.897  0.00  0.00    -0.286 OA
ATOM     22  C   LIG    1       35.034  57.307 -14.051  0.00  0.00    +0.084 A 
ATOM     23  C   LIG    1       33.808  57.896 -13.819  0.00  0.00    +0.199 A 
ATOM     24  O   LIG    1       32.614  57.300 -14.201  0.00  0.00    -0.286 OA
ATOM     25  C   LIG    1       33.844  59.124 -13.178  0.00  0.00    +0.042 A 
ENDBRANCH  17  18
ENDBRANCH  15  16
BRANCH  12  11
ATOM     11  O   LIG    1       30.915  58.581  -7.697  0.00  0.00    -0.450 OA
BRANCH  11  10
ATOM      3  C   LIG    1       27.578  57.926  -7.893  0.00  0.00    +0.185 C 
ATOM      4  C   LIG    1       27.316  57.305  -6.325  0.00  0.00    +0.215 C 
ATOM      5  O   LIG    1       27.653  55.878  -6.569  0.00  0.00    -0.218 OA
ATOM      6  C   LIG    1       28.850  57.636  -5.709  0.00  0.00    +0.221 C 
ATOM      7  O   LIG    1       28.322  58.106  -4.400  0.00  0.00    -0.217 OA
ATOM      8  C   LIG    1       29.101  59.182  -6.272  0.00  0.00    +0.254 C 
ATOM      9  O   LIG    1       27.732  59.676  -6.496  0.00  0.00    -0.213 OA
ATOM     10  C   LIG    1       29.429  58.883  -7.902  0.00  0.00    +0.322 C 
ATOM     28  O   LIG    1       28.996  57.446  -8.027  0.00  0.00    -0.316 OA
BRANCH   3   2
ATOM      1  O   LIG    1       27.425  56.767 -10.002  0.00  0.00    -0.218 OA
ATOM      2  C   LIG    1       26.893  56.726  -8.753  0.00  0.00    +0.214 C 
ENDBRANCH   3   2
ENDBRANCH  11  10
ENDBRANCH  12  11
TORSDOF 5
ENDMDL
