REMARK  Name = 
REMARK                            x       y       z     vdW  Elec       q    Type
REMARK                         _______ _______ _______ _____ _____    ______ ____
ROOT
ATOM      7  C   LIG    1        0.172   0.592   0.034  0.00  0.00    +0.000 C 
ATOM      8  C   LIG    1       -0.563  -0.491  -0.049  0.00  0.00    +0.000 C 
ENDROOT
BRANCH   8   9
ATOM      9  C   LIG    1       -2.017  -0.496  -0.114  0.00  0.00    +0.006 A 
ATOM     10  C   LIG    1       -2.795   0.641  -0.096  0.00  0.00    +0.042 A 
ATOM     11  C   LIG    1       -4.188   0.555  -0.162  0.00  0.00    +0.199 A 
ATOM     12  O   LIG    1       -4.931   1.721  -0.142  0.00  0.00    -0.286 OA
ATOM     13  C   LIG    1       -4.811  -0.673  -0.247  0.00  0.00    +0.084 A 
ATOM     14  C   LIG    1       -4.037  -1.813  -0.265  0.00  0.00    +0.199 A 
ATOM     15  O   LIG    1       -4.659  -3.049  -0.349  0.00  0.00    -0.286 OA
ATOM     16  C   LIG    1       -2.655  -1.713  -0.198  0.00  0.00    +0.042 A 
ENDBRANCH   8   9
BRANCH   7   6
ATOM      3  C   LIG    1        4.413   0.790   0.233  0.00  0.00    +0.139 A 
ATOM      4  C   LIG    1        3.773  -0.430   0.148  0.00  0.00    +0.037 A 
ATOM      5  C   LIG    1        2.400  -0.534   0.082  0.00  0.00    +0.003 A 
ATOM      6  C   LIG    1        1.618   0.595   0.099  0.00  0.00    +0.000 A 
ATOM     17  C   LIG    1        2.246   1.821   0.183  0.00  0.00    +0.003 A 
ATOM     18  C   LIG    1        3.625   1.914   0.249  0.00  0.00    +0.037 A 
BRANCH   3   2
ATOM      1  C   LIG    1        6.593  -0.305   0.280  0.00  0.00    +0.252 C 
ATOM      2  O   LIG    1        5.817   0.876   0.299  0.00  0.00    -0.471 OA
ENDBRANCH   3   2
ENDBRANCH   7   6
TORSDOF 3
