REMARK  Name = 
REMARK                            x       y       z     vdW  Elec       q    Type
REMARK                         _______ _______ _______ _____ _____    ______ ____
ROOT
ATOM     12  C   LIG    1       -0.637   0.119   0.460  0.00  0.00    +0.141 A 
ATOM     13  C   LIG    1        0.611  -0.487   0.527  0.00  0.00    +0.037 A 
ATOM     14  C   LIG    1        1.743   0.226   0.263  0.00  0.00    +0.003 A 
ATOM     15  C   LIG    1        1.791   1.526  -0.075  0.00  0.00    +0.000 A 
ATOM     26  C   LIG    1        0.524   2.167  -0.150  0.00  0.00    +0.003 A 
ATOM     27  C   LIG    1       -0.592   1.450   0.114  0.00  0.00    +0.037 A 
ENDROOT
BRANCH  15  16
ATOM     16  C   LIG    1        2.926   2.345  -0.367  0.00  0.00    +0.000 C 
ATOM     17  C   LIG    1        4.115   2.026  -0.370  0.00  0.00    +0.000 C 
BRANCH  17  18
ATOM     18  C   LIG    1        4.661   0.743  -0.079  0.00  0.00    +0.006 A 
ATOM     19  C   LIG    1        6.061   0.708  -0.170  0.00  0.00    +0.042 A 
ATOM     20  C   LIG    1        6.745  -0.447   0.078  0.00  0.00    +0.199 A 
ATOM     21  O   LIG    1        8.152  -0.435  -0.025  0.00  0.00    -0.286 OA
ATOM     22  C   LIG    1        6.085  -1.608   0.424  0.00  0.00    +0.084 A 
ATOM     23  C   LIG    1        4.688  -1.591   0.520  0.00  0.00    +0.199 A 
ATOM     24  O   LIG    1        4.003  -2.746   0.866  0.00  0.00    -0.286 OA
ATOM     25  C   LIG    1        4.061  -0.414   0.262  0.00  0.00    +0.042 A 
ENDBRANCH  17  18
ENDBRANCH  15  16
BRANCH  12  11
ATOM     11  O   LIG    1       -1.803  -0.589   0.726  0.00  0.00    -0.450 OA
BRANCH  11  10
ATOM      3  C   LIG    1       -5.240   0.128   0.880  0.00  0.00    +0.185 C 
ATOM      4  C   LIG    1       -5.574  -0.353  -0.746  0.00  0.00    +0.215 C 
ATOM      5  O   LIG    1       -6.785   0.522  -0.822  0.00  0.00    -0.218 OA
ATOM      6  C   LIG    1       -4.575   0.904  -1.335  0.00  0.00    +0.221 C 
ATOM      7  O   LIG    1       -4.708   0.434  -2.762  0.00  0.00    -0.217 OA
ATOM      8  C   LIG    1       -3.071   0.135  -1.149  0.00  0.00    +0.254 C 
ATOM      9  O   LIG    1       -3.435  -1.284  -1.274  0.00  0.00    -0.213 OA
ATOM     10  C   LIG    1       -3.062   0.330   0.579  0.00  0.00    +0.322 C 
ATOM     28  O   LIG    1       -4.033  -0.802   0.940  0.00  0.00    -0.316 OA
BRANCH   3   2
ATOM      1  O   LIG    1       -6.351  -2.056   0.766  0.00  0.00    -0.218 OA
ATOM      2  C   LIG    1       -6.298  -0.950   1.529  0.00  0.00    +0.214 C 
ENDBRANCH   3   2
ENDBRANCH  11  10
ENDBRANCH  12  11
TORSDOF 5
