MODEL 1
REMARK VINA RESULT:      -5.3      0.000      0.000
REMARK  Name = 
REMARK                            x       y       z     vdW  Elec       q    Type
REMARK                         _______ _______ _______ _____ _____    ______ ____
ROOT
ATOM      9  C   LIG    1       34.541  80.009 -12.230  0.00  0.00    +0.139 A 
ATOM     10  C   LIG    1       33.839  79.209 -13.105  0.00  0.00    +0.037 A 
ATOM     11  C   LIG    1       32.464  79.137 -13.112  0.00  0.00    +0.003 A 
ATOM     12  C   LIG    1       31.772  79.912 -12.191  0.00  0.00    +0.000 A 
ATOM     23  C   LIG    1       32.464  80.695 -11.332  0.00  0.00    +0.003 A 
ATOM     24  C   LIG    1       33.834  80.765 -11.328  0.00  0.00    +0.037 A 
ENDROOT
BRANCH  12  13
ATOM     13  C   LIG    1       30.312  79.806 -12.231  0.00  0.00    +0.000 C 
ATOM     14  C   LIG    1       29.516  80.166 -11.272  0.00  0.00    +0.000 C 
BRANCH  14  15
ATOM     15  C   LIG    1       28.064  80.060 -11.316  0.00  0.00    +0.006 A 
ATOM     16  C   LIG    1       27.279  79.982 -10.189  0.00  0.00    +0.042 A 
ATOM     17  C   LIG    1       25.905  79.882 -10.252  0.00  0.00    +0.199 A 
ATOM     18  O   LIG    1       25.107  79.802  -9.120  0.00  0.00    -0.286 OA
ATOM     19  C   LIG    1       25.294  79.858 -11.493  0.00  0.00    +0.084 A 
ATOM     20  C   LIG    1       26.050  79.935 -12.623  0.00  0.00    +0.199 A 
ATOM     21  O   LIG    1       25.416  79.910 -13.845  0.00  0.00    -0.286 OA
ATOM     22  C   LIG    1       27.432  80.035 -12.540  0.00  0.00    +0.042 A 
ENDBRANCH  14  15
ENDBRANCH  12  13
BRANCH   9   8
ATOM      8  O   LIG    1       35.936  80.025 -12.286  0.00  0.00    -0.475 OA
BRANCH   8   7
ATOM      7  C   LIG    1       36.670  78.850 -12.010  0.00  0.00    +0.205 C 
BRANCH   7   6
ATOM      6  C   LIG    1       36.799  78.590 -10.523  0.00  0.00    +0.047 C 
BRANCH   6   5
ATOM      5  C   LIG    1       36.582  77.101 -10.321  0.00  0.00    +0.004 C 
BRANCH   5   4
ATOM      4  C   LIG    1       35.100  76.807 -10.410  0.00  0.00    +0.012 C 
BRANCH   4   3
ATOM      3  C   LIG    1       34.359  77.584  -9.355  0.00  0.00    +0.114 C 
BRANCH   3   2
ATOM      1  O   LIG    1       31.999  77.827  -9.308  0.00  0.00    -0.246 OA
ATOM      2  C   LIG    1       32.971  77.064  -9.183  0.00  0.00    +0.365 C 
ATOM     25  O   LIG    1       32.767  75.729  -8.883  0.00  0.00    -0.246 OA
ENDBRANCH   3   2
ENDBRANCH   4   3
ENDBRANCH   5   4
ENDBRANCH   6   5
ENDBRANCH   7   6
ENDBRANCH   8   7
ENDBRANCH   9   8
TORSDOF 9
ENDMDL
MODEL 2
REMARK VINA RESULT:      -5.2     27.063     29.543
REMARK  Name = 
REMARK                            x       y       z     vdW  Elec       q    Type
REMARK                         _______ _______ _______ _____ _____    ______ ____
ROOT
ATOM      9  C   LIG    1       16.928  68.102  11.992  0.00  0.00    +0.139 A 
ATOM     10  C   LIG    1       17.582  69.229  11.545  0.00  0.00    +0.037 A 
ATOM     11  C   LIG    1       18.628  69.806  12.230  0.00  0.00    +0.003 A 
ATOM     12  C   LIG    1       19.026  69.212  13.420  0.00  0.00    +0.000 A 
ATOM     23  C   LIG    1       18.382  68.106  13.856  0.00  0.00    +0.003 A 
ATOM     24  C   LIG    1       17.341  67.533  13.172  0.00  0.00    +0.037 A 
ENDROOT
BRANCH  12  13
ATOM     13  C   LIG    1       20.141  69.857  14.118  0.00  0.00    +0.000 C 
ATOM     14  C   LIG    1       20.398  71.129  14.087  0.00  0.00    +0.000 C 
BRANCH  14  15
ATOM     15  C   LIG    1       21.508  71.766  14.783  0.00  0.00    +0.006 A 
ATOM     16  C   LIG    1       22.264  72.775  14.231  0.00  0.00    +0.042 A 
ATOM     17  C   LIG    1       23.311  73.366  14.907  0.00  0.00    +0.199 A 
ATOM     18  O   LIG    1       24.078  74.383  14.357  0.00  0.00    -0.286 OA
ATOM     19  C   LIG    1       23.613  72.929  16.184  0.00  0.00    +0.084 A 
ATOM     20  C   LIG    1       22.878  71.932  16.751  0.00  0.00    +0.199 A 
ATOM     21  O   LIG    1       23.200  71.517  18.024  0.00  0.00    -0.286 OA
ATOM     22  C   LIG    1       21.828  71.349  16.056  0.00  0.00    +0.042 A 
ENDBRANCH  14  15
ENDBRANCH  12  13
BRANCH   9   8
ATOM      8  O   LIG    1       15.876  67.577  11.238  0.00  0.00    -0.475 OA
BRANCH   8   7
ATOM      7  C   LIG    1       16.107  67.124   9.920  0.00  0.00    +0.205 C 
BRANCH   7   6
ATOM      6  C   LIG    1       14.860  66.542   9.286  0.00  0.00    +0.047 C 
BRANCH   6   5
ATOM      5  C   LIG    1       15.231  66.164   7.863  0.00  0.00    +0.004 C 
BRANCH   5   4
ATOM      4  C   LIG    1       14.125  66.617   6.934  0.00  0.00    +0.012 C 
BRANCH   4   3
ATOM      3  C   LIG    1       14.262  65.932   5.601  0.00  0.00    +0.114 C 
BRANCH   3   2
ATOM      1  O   LIG    1       13.591  66.711   3.462  0.00  0.00    -0.246 OA
ATOM      2  C   LIG    1       13.255  66.447   4.628  0.00  0.00    +0.365 C 
ATOM     25  O   LIG    1       11.943  66.632   5.026  0.00  0.00    -0.246 OA
ENDBRANCH   3   2
ENDBRANCH   4   3
ENDBRANCH   5   4
ENDBRANCH   6   5
ENDBRANCH   7   6
ENDBRANCH   8   7
ENDBRANCH   9   8
TORSDOF 9
ENDMDL
MODEL 3
REMARK VINA RESULT:      -5.2     32.177     35.522
REMARK  Name = 
REMARK                            x       y       z     vdW  Elec       q    Type
REMARK                         _______ _______ _______ _____ _____    ______ ____
ROOT
ATOM      9  C   LIG    1        8.143  53.111  -1.976  0.00  0.00    +0.139 A 
ATOM     10  C   LIG    1        9.083  53.574  -2.870  0.00  0.00    +0.037 A 
ATOM     11  C   LIG    1       10.069  54.470  -2.521  0.00  0.00    +0.003 A 
ATOM     12  C   LIG    1       10.101  54.913  -1.206  0.00  0.00    +0.000 A 
ATOM     23  C   LIG    1        9.177  54.456  -0.330  0.00  0.00    +0.003 A 
ATOM     24  C   LIG    1        8.196  53.564  -0.681  0.00  0.00    +0.037 A 
ENDROOT
BRANCH  12  13
ATOM     13  C   LIG    1       11.165  55.864  -0.875  0.00  0.00    +0.000 C 
ATOM     14  C   LIG    1       11.821  55.882   0.244  0.00  0.00    +0.000 C 
BRANCH  14  15
ATOM     15  C   LIG    1       12.879  56.830   0.569  0.00  0.00    +0.006 A 
ATOM     16  C   LIG    1       12.666  57.975   1.302  0.00  0.00    +0.042 A 
ATOM     17  C   LIG    1       13.682  58.860   1.599  0.00  0.00    +0.199 A 
ATOM     18  O   LIG    1       13.475  60.016   2.338  0.00  0.00    -0.286 OA
ATOM     19  C   LIG    1       14.959  58.588   1.142  0.00  0.00    +0.084 A 
ATOM     20  C   LIG    1       15.193  57.462   0.414  0.00  0.00    +0.199 A 
ATOM     21  O   LIG    1       16.474  57.215  -0.028  0.00  0.00    -0.286 OA
ATOM     22  C   LIG    1       14.159  56.582   0.125  0.00  0.00    +0.042 A 
ENDBRANCH  14  15
ENDBRANCH  12  13
BRANCH   9   8
ATOM      8  O   LIG    1        7.174  52.203  -2.410  0.00  0.00    -0.475 OA
BRANCH   8   7
ATOM      7  C   LIG    1        6.054  51.920  -1.596  0.00  0.00    +0.205 C 
BRANCH   7   6
ATOM      6  C   LIG    1        5.832  50.433  -1.422  0.00  0.00    +0.047 C 
BRANCH   6   5
ATOM      5  C   LIG    1        5.720  50.181   0.071  0.00  0.00    +0.004 C 
BRANCH   5   4
ATOM      4  C   LIG    1        7.091  50.334   0.696  0.00  0.00    +0.012 C 
BRANCH   4   3
ATOM      3  C   LIG    1        6.954  50.741   2.138  0.00  0.00    +0.114 C 
BRANCH   3   2
ATOM      1  O   LIG    1        7.648  49.897   4.245  0.00  0.00    -0.246 OA
ATOM      2  C   LIG    1        7.417  49.654   3.048  0.00  0.00    +0.365 C 
ATOM     25  O   LIG    1        7.591  48.372   2.559  0.00  0.00    -0.246 OA
ENDBRANCH   3   2
ENDBRANCH   4   3
ENDBRANCH   5   4
ENDBRANCH   6   5
ENDBRANCH   7   6
ENDBRANCH   8   7
ENDBRANCH   9   8
TORSDOF 9
ENDMDL
MODEL 4
REMARK VINA RESULT:      -5.2      1.975      2.938
REMARK  Name = 
REMARK                            x       y       z     vdW  Elec       q    Type
REMARK                         _______ _______ _______ _____ _____    ______ ____
ROOT
ATOM      9  C   LIG    1       34.837  78.280 -12.335  0.00  0.00    +0.139 A 
ATOM     10  C   LIG    1       34.008  78.756 -13.327  0.00  0.00    +0.037 A 
ATOM     11  C   LIG    1       32.733  79.214 -13.078  0.00  0.00    +0.003 A 
ATOM     12  C   LIG    1       32.282  79.186 -11.765  0.00  0.00    +0.000 A 
ATOM     23  C   LIG    1       33.099  78.718 -10.794  0.00  0.00    +0.003 A 
ATOM     24  C   LIG    1       34.368  78.263 -11.045  0.00  0.00    +0.037 A 
ENDROOT
BRANCH  12  13
ATOM     13  C   LIG    1       30.921  79.681 -11.543  0.00  0.00    +0.000 C 
ATOM     14  C   LIG    1       29.842  79.083 -11.943  0.00  0.00    +0.000 C 
BRANCH  14  15
ATOM     15  C   LIG    1       28.490  79.579 -11.720  0.00  0.00    +0.006 A 
ATOM     16  C   LIG    1       28.032  79.990 -10.489  0.00  0.00    +0.042 A 
ATOM     17  C   LIG    1       26.748  80.456 -10.298  0.00  0.00    +0.199 A 
ATOM     18  O   LIG    1       26.279  80.872  -9.061  0.00  0.00    -0.286 OA
ATOM     19  C   LIG    1       25.889  80.511 -11.382  0.00  0.00    +0.084 A 
ATOM     20  C   LIG    1       26.320  80.109 -12.609  0.00  0.00    +0.199 A 
ATOM     21  O   LIG    1       25.445  80.175 -13.671  0.00  0.00    -0.286 OA
ATOM     22  C   LIG    1       27.616  79.643 -12.783  0.00  0.00    +0.042 A 
ENDBRANCH  14  15
ENDBRANCH  12  13
BRANCH   9   8
ATOM      8  O   LIG    1       36.118  77.834 -12.670  0.00  0.00    -0.475 OA
BRANCH   8   7
ATOM      7  C   LIG    1       37.199  78.057 -11.788  0.00  0.00    +0.205 C 
BRANCH   7   6
ATOM      6  C   LIG    1       37.968  79.315 -12.129  0.00  0.00    +0.047 C 
BRANCH   6   5
ATOM      5  C   LIG    1       38.252  80.022 -10.815  0.00  0.00    +0.004 C 
BRANCH   5   4
ATOM      4  C   LIG    1       36.949  80.550 -10.254  0.00  0.00    +0.012 C 
BRANCH   4   3
ATOM      3  C   LIG    1       36.681  81.931 -10.792  0.00  0.00    +0.114 C 
BRANCH   3   2
ATOM      1  O   LIG    1       35.628  81.833 -12.916  0.00  0.00    -0.246 OA
ATOM      2  C   LIG    1       35.487  81.935 -11.686  0.00  0.00    +0.365 C 
ATOM     25  O   LIG    1       34.220  82.053 -11.144  0.00  0.00    -0.246 OA
ENDBRANCH   3   2
ENDBRANCH   4   3
ENDBRANCH   5   4
ENDBRANCH   6   5
ENDBRANCH   7   6
ENDBRANCH   8   7
ENDBRANCH   9   8
TORSDOF 9
ENDMDL
MODEL 5
REMARK VINA RESULT:      -5.1     31.456     34.680
REMARK  Name = 
REMARK                            x       y       z     vdW  Elec       q    Type
REMARK                         _______ _______ _______ _____ _____    ______ ____
ROOT
ATOM      9  C   LIG    1        9.625  54.140  -3.191  0.00  0.00    +0.139 A 
ATOM     10  C   LIG    1       10.438  53.610  -4.167  0.00  0.00    +0.037 A 
ATOM     11  C   LIG    1       10.634  54.218  -5.387  0.00  0.00    +0.003 A 
ATOM     12  C   LIG    1        9.976  55.417  -5.623  0.00  0.00    +0.000 A 
ATOM     23  C   LIG    1        9.178  55.935  -4.662  0.00  0.00    +0.003 A 
ATOM     24  C   LIG    1        8.985  55.327  -3.448  0.00  0.00    +0.037 A 
ENDROOT
BRANCH  12  13
ATOM     13  C   LIG    1       10.211  56.032  -6.932  0.00  0.00    +0.000 C 
ATOM     14  C   LIG    1        9.383  55.989  -7.930  0.00  0.00    +0.000 C 
BRANCH  14  15
ATOM     15  C   LIG    1        9.621  56.602  -9.231  0.00  0.00    +0.006 A 
ATOM     16  C   LIG    1        9.419  55.943 -10.422  0.00  0.00    +0.042 A 
ATOM     17  C   LIG    1        9.650  56.542 -11.643  0.00  0.00    +0.199 A 
ATOM     18  O   LIG    1        9.449  55.885 -12.848  0.00  0.00    -0.286 OA
ATOM     19  C   LIG    1       10.101  57.849 -11.671  0.00  0.00    +0.084 A 
ATOM     20  C   LIG    1       10.308  58.521 -10.505  0.00  0.00    +0.199 A 
ATOM     21  O   LIG    1       10.757  59.821 -10.562  0.00  0.00    -0.286 OA
ATOM     22  C   LIG    1       10.070  57.903  -9.285  0.00  0.00    +0.042 A 
ENDBRANCH  14  15
ENDBRANCH  12  13
BRANCH   9   8
ATOM      8  O   LIG    1        9.478  53.460  -1.979  0.00  0.00    -0.475 OA
BRANCH   8   7
ATOM      7  C   LIG    1        8.200  53.330  -1.391  0.00  0.00    +0.205 C 
BRANCH   7   6
ATOM      6  C   LIG    1        7.441  52.134  -1.927  0.00  0.00    +0.047 C 
BRANCH   6   5
ATOM      5  C   LIG    1        6.628  51.579  -0.770  0.00  0.00    +0.004 C 
BRANCH   5   4
ATOM      4  C   LIG    1        7.348  50.375  -0.201  0.00  0.00    +0.012 C 
BRANCH   4   3
ATOM      3  C   LIG    1        6.405  49.569   0.650  0.00  0.00    +0.114 C 
BRANCH   3   2
ATOM      1  O   LIG    1        8.095  47.946   1.025  0.00  0.00    -0.246 OA
ATOM      2  C   LIG    1        7.150  48.596   1.502  0.00  0.00    +0.365 C 
ATOM     25  O   LIG    1        6.787  48.418   2.824  0.00  0.00    -0.246 OA
ENDBRANCH   3   2
ENDBRANCH   4   3
ENDBRANCH   5   4
ENDBRANCH   6   5
ENDBRANCH   7   6
ENDBRANCH   8   7
ENDBRANCH   9   8
TORSDOF 9
ENDMDL
MODEL 6
REMARK VINA RESULT:      -5.1      2.951      3.875
REMARK  Name = 
REMARK                            x       y       z     vdW  Elec       q    Type
REMARK                         _______ _______ _______ _____ _____    ______ ____
ROOT
ATOM      9  C   LIG    1       34.617  78.343 -12.207  0.00  0.00    +0.139 A 
ATOM     10  C   LIG    1       34.001  78.679 -11.021  0.00  0.00    +0.037 A 
ATOM     11  C   LIG    1       32.725  79.194 -10.962  0.00  0.00    +0.003 A 
ATOM     12  C   LIG    1       32.046  79.373 -12.160  0.00  0.00    +0.000 A 
ATOM     23  C   LIG    1       32.653  79.042 -13.322  0.00  0.00    +0.003 A 
ATOM     24  C   LIG    1       33.924  78.530 -13.377  0.00  0.00    +0.037 A 
ENDROOT
BRANCH  12  13
ATOM     13  C   LIG    1       30.691  79.922 -12.053  0.00  0.00    +0.000 C 
ATOM     14  C   LIG    1       29.615  79.321 -12.457  0.00  0.00    +0.000 C 
BRANCH  14  15
ATOM     15  C   LIG    1       28.270  79.870 -12.349  0.00  0.00    +0.006 A 
ATOM     16  C   LIG    1       27.579  79.943 -11.161  0.00  0.00    +0.042 A 
ATOM     17  C   LIG    1       26.306  80.467 -11.079  0.00  0.00    +0.199 A 
ATOM     18  O   LIG    1       25.603  80.544  -9.886  0.00  0.00    -0.286 OA
ATOM     19  C   LIG    1       25.701  80.935 -12.232  0.00  0.00    +0.084 A 
ATOM     20  C   LIG    1       26.365  80.873 -13.419  0.00  0.00    +0.199 A 
ATOM     21  O   LIG    1       25.740  81.347 -14.551  0.00  0.00    -0.286 OA
ATOM     22  C   LIG    1       27.646  80.343 -13.483  0.00  0.00    +0.042 A 
ENDBRANCH  14  15
ENDBRANCH  12  13
BRANCH   9   8
ATOM      8  O   LIG    1       35.915  77.827 -12.181  0.00  0.00    -0.475 OA
BRANCH   8   7
ATOM      7  C   LIG    1       36.640  77.795 -10.969  0.00  0.00    +0.205 C 
BRANCH   7   6
ATOM      6  C   LIG    1       38.111  77.511 -11.188  0.00  0.00    +0.047 C 
BRANCH   6   5
ATOM      5  C   LIG    1       38.428  76.239 -10.421  0.00  0.00    +0.004 C 
BRANCH   5   4
ATOM      4  C   LIG    1       39.911  76.209 -10.118  0.00  0.00    +0.012 C 
BRANCH   4   3
ATOM      3  C   LIG    1       40.359  74.791  -9.888  0.00  0.00    +0.114 C 
BRANCH   3   2
ATOM      1  O   LIG    1       39.955  73.073 -11.474  0.00  0.00    -0.246 OA
ATOM      2  C   LIG    1       40.606  74.090 -11.181  0.00  0.00    +0.365 C 
ATOM     25  O   LIG    1       41.563  74.573 -12.056  0.00  0.00    -0.246 OA
ENDBRANCH   3   2
ENDBRANCH   4   3
ENDBRANCH   5   4
ENDBRANCH   6   5
ENDBRANCH   7   6
ENDBRANCH   8   7
ENDBRANCH   9   8
TORSDOF 9
ENDMDL
MODEL 7
REMARK VINA RESULT:      -5.0     43.932     46.369
REMARK  Name = 
REMARK                            x       y       z     vdW  Elec       q    Type
REMARK                         _______ _______ _______ _____ _____    ______ ____
ROOT
ATOM      9  C   LIG    1        7.370  41.478 -16.431  0.00  0.00    +0.139 A 
ATOM     10  C   LIG    1        7.557  41.428 -17.794  0.00  0.00    +0.037 A 
ATOM     11  C   LIG    1        7.716  40.247 -18.484  0.00  0.00    +0.003 A 
ATOM     12  C   LIG    1        7.684  39.065 -17.756  0.00  0.00    +0.000 A 
ATOM     23  C   LIG    1        7.501  39.117 -16.417  0.00  0.00    +0.003 A 
ATOM     24  C   LIG    1        7.342  40.295 -15.733  0.00  0.00    +0.037 A 
ENDROOT
BRANCH  12  13
ATOM     13  C   LIG    1        7.857  37.831 -18.526  0.00  0.00    +0.000 C 
ATOM     14  C   LIG    1        8.958  37.472 -19.111  0.00  0.00    +0.000 C 
BRANCH  14  15
ATOM     15  C   LIG    1        9.126  36.243 -19.876  0.00  0.00    +0.006 A 
ATOM     16  C   LIG    1        9.539  36.223 -21.189  0.00  0.00    +0.042 A 
ATOM     17  C   LIG    1        9.692  35.049 -21.896  0.00  0.00    +0.199 A 
ATOM     18  O   LIG    1       10.107  35.021 -23.219  0.00  0.00    -0.286 OA
ATOM     19  C   LIG    1        9.420  33.849 -21.264  0.00  0.00    +0.084 A 
ATOM     20  C   LIG    1        9.010  33.844 -19.965  0.00  0.00    +0.199 A 
ATOM     21  O   LIG    1        8.747  32.635 -19.360  0.00  0.00    -0.286 OA
ATOM     22  C   LIG    1        8.862  35.035 -19.269  0.00  0.00    +0.042 A 
ENDBRANCH  14  15
ENDBRANCH  12  13
BRANCH   9   8
ATOM      8  O   LIG    1        7.217  42.718 -15.806  0.00  0.00    -0.475 OA
BRANCH   8   7
ATOM      7  C   LIG    1        8.322  43.590 -15.683  0.00  0.00    +0.205 C 
BRANCH   7   6
ATOM      6  C   LIG    1        9.041  43.423 -14.361  0.00  0.00    +0.047 C 
BRANCH   6   5
ATOM      5  C   LIG    1        8.069  43.856 -13.278  0.00  0.00    +0.004 C 
BRANCH   5   4
ATOM      4  C   LIG    1        7.740  45.321 -13.476  0.00  0.00    +0.012 C 
BRANCH   4   3
ATOM      3  C   LIG    1        7.230  45.911 -12.188  0.00  0.00    +0.114 C 
BRANCH   3   2
ATOM      1  O   LIG    1        6.745  48.183 -11.707  0.00  0.00    -0.246 OA
ATOM      2  C   LIG    1        7.591  47.354 -12.080  0.00  0.00    +0.365 C 
ATOM     25  O   LIG    1        8.872  47.770 -12.396  0.00  0.00    -0.246 OA
ENDBRANCH   3   2
ENDBRANCH   4   3
ENDBRANCH   5   4
ENDBRANCH   6   5
ENDBRANCH   7   6
ENDBRANCH   8   7
ENDBRANCH   9   8
TORSDOF 9
ENDMDL
MODEL 8
REMARK VINA RESULT:      -4.9     26.102     29.048
REMARK  Name = 
REMARK                            x       y       z     vdW  Elec       q    Type
REMARK                         _______ _______ _______ _____ _____    ______ ____
ROOT
ATOM      9  C   LIG    1       17.058  68.430  11.608  0.00  0.00    +0.139 A 
ATOM     10  C   LIG    1       17.824  69.501  11.203  0.00  0.00    +0.037 A 
ATOM     11  C   LIG    1       18.840  70.025  11.971  0.00  0.00    +0.003 A 
ATOM     12  C   LIG    1       19.088  69.435  13.203  0.00  0.00    +0.000 A 
ATOM     23  C   LIG    1       18.333  68.385  13.598  0.00  0.00    +0.003 A 
ATOM     24  C   LIG    1       17.322  67.865  12.831  0.00  0.00    +0.037 A 
ENDROOT
BRANCH  12  13
ATOM     13  C   LIG    1       20.176  70.022  13.988  0.00  0.00    +0.000 C 
ATOM     14  C   LIG    1       20.498  71.279  13.985  0.00  0.00    +0.000 C 
BRANCH  14  15
ATOM     15  C   LIG    1       21.581  71.859  14.768  0.00  0.00    +0.006 A 
ATOM     16  C   LIG    1       22.398  72.862  14.297  0.00  0.00    +0.042 A 
ATOM     17  C   LIG    1       23.418  73.398  15.055  0.00  0.00    +0.199 A 
ATOM     18  O   LIG    1       24.247  74.407  14.588  0.00  0.00    -0.286 OA
ATOM     19  C   LIG    1       23.628  72.910  16.333  0.00  0.00    +0.084 A 
ATOM     20  C   LIG    1       22.832  71.919  16.820  0.00  0.00    +0.199 A 
ATOM     21  O   LIG    1       23.063  71.453  18.095  0.00  0.00    -0.286 OA
ATOM     22  C   LIG    1       21.809  71.391  16.043  0.00  0.00    +0.042 A 
ENDBRANCH  14  15
ENDBRANCH  12  13
BRANCH   9   8
ATOM      8  O   LIG    1       16.045  67.958  10.770  0.00  0.00    -0.475 OA
BRANCH   8   7
ATOM      7  C   LIG    1       15.820  66.569  10.645  0.00  0.00    +0.205 C 
BRANCH   7   6
ATOM      6  C   LIG    1       16.128  66.061   9.252  0.00  0.00    +0.047 C 
BRANCH   6   5
ATOM      5  C   LIG    1       17.634  65.883   9.175  0.00  0.00    +0.004 C 
BRANCH   5   4
ATOM      4  C   LIG    1       18.198  66.912   8.219  0.00  0.00    +0.012 C 
BRANCH   4   3
ATOM      3  C   LIG    1       19.620  66.562   7.870  0.00  0.00    +0.114 C 
BRANCH   3   2
ATOM      1  O   LIG    1       20.535  67.919   9.587  0.00  0.00    -0.246 OA
ATOM      2  C   LIG    1       20.532  66.813   9.023  0.00  0.00    +0.365 C 
ATOM     25  O   LIG    1       21.377  65.811   9.465  0.00  0.00    -0.246 OA
ENDBRANCH   3   2
ENDBRANCH   4   3
ENDBRANCH   5   4
ENDBRANCH   6   5
ENDBRANCH   7   6
ENDBRANCH   8   7
ENDBRANCH   9   8
TORSDOF 9
ENDMDL
MODEL 9
REMARK VINA RESULT:      -4.9     45.657     47.956
REMARK  Name = 
REMARK                            x       y       z     vdW  Elec       q    Type
REMARK                         _______ _______ _______ _____ _____    ______ ____
ROOT
ATOM      9  C   LIG    1        7.550  39.613 -17.625  0.00  0.00    +0.139 A 
ATOM     10  C   LIG    1        7.658  39.582 -18.998  0.00  0.00    +0.037 A 
ATOM     11  C   LIG    1        8.081  38.469 -19.688  0.00  0.00    +0.003 A 
ATOM     12  C   LIG    1        8.407  37.338 -18.952  0.00  0.00    +0.000 A 
ATOM     23  C   LIG    1        8.300  37.372 -17.604  0.00  0.00    +0.003 A 
ATOM     24  C   LIG    1        7.878  38.482 -16.919  0.00  0.00    +0.037 A 
ENDROOT
BRANCH  12  13
ATOM     13  C   LIG    1        8.853  36.175 -19.724  0.00  0.00    +0.000 C 
ATOM     14  C   LIG    1        8.905  34.961 -19.271  0.00  0.00    +0.000 C 
BRANCH  14  15
ATOM     15  C   LIG    1        9.348  33.807 -20.042  0.00  0.00    +0.006 A 
ATOM     16  C   LIG    1        9.343  32.523 -19.548  0.00  0.00    +0.042 A 
ATOM     17  C   LIG    1        9.766  31.443 -20.295  0.00  0.00    +0.199 A 
ATOM     18  O   LIG    1        9.764  30.146 -19.804  0.00  0.00    -0.286 OA
ATOM     19  C   LIG    1       10.213  31.659 -21.586  0.00  0.00    +0.084 A 
ATOM     20  C   LIG    1       10.227  32.922 -22.097  0.00  0.00    +0.199 A 
ATOM     21  O   LIG    1       10.676  33.108 -23.385  0.00  0.00    -0.286 OA
ATOM     22  C   LIG    1        9.797  33.996 -21.331  0.00  0.00    +0.042 A 
ENDBRANCH  14  15
ENDBRANCH  12  13
BRANCH   9   8
ATOM      8  O   LIG    1        7.113  40.783 -16.999  0.00  0.00    -0.475 OA
BRANCH   8   7
ATOM      7  C   LIG    1        7.145  40.887 -15.591  0.00  0.00    +0.205 C 
BRANCH   7   6
ATOM      6  C   LIG    1        7.808  42.166 -15.124  0.00  0.00    +0.047 C 
BRANCH   6   5
ATOM      5  C   LIG    1        7.016  42.656 -13.925  0.00  0.00    +0.004 C 
BRANCH   5   4
ATOM      4  C   LIG    1        7.888  43.589 -13.112  0.00  0.00    +0.012 C 
BRANCH   4   3
ATOM      3  C   LIG    1        9.050  44.060 -13.945  0.00  0.00    +0.114 C 
BRANCH   3   2
ATOM      1  O   LIG    1        9.533  46.109 -15.040  0.00  0.00    -0.246 OA
ATOM      2  C   LIG    1        9.081  45.549 -14.027  0.00  0.00    +0.365 C 
ATOM     25  O   LIG    1        8.606  46.309 -12.973  0.00  0.00    -0.246 OA
ENDBRANCH   3   2
ENDBRANCH   4   3
ENDBRANCH   5   4
ENDBRANCH   6   5
ENDBRANCH   7   6
ENDBRANCH   8   7
ENDBRANCH   9   8
TORSDOF 9
ENDMDL
MODEL 10
REMARK VINA RESULT:      -4.9     48.719     51.883
REMARK  Name = 
REMARK                            x       y       z     vdW  Elec       q    Type
REMARK                         _______ _______ _______ _____ _____    ______ ____
ROOT
ATOM      9  C   LIG    1       24.297  38.613  20.559  0.00  0.00    +0.139 A 
ATOM     10  C   LIG    1       23.997  37.336  20.980  0.00  0.00    +0.037 A 
ATOM     11  C   LIG    1       24.034  36.245  20.141  0.00  0.00    +0.003 A 
ATOM     12  C   LIG    1       24.390  36.461  18.817  0.00  0.00    +0.000 A 
ATOM     23  C   LIG    1       24.683  37.716  18.406  0.00  0.00    +0.003 A 
ATOM     24  C   LIG    1       24.646  38.800  19.244  0.00  0.00    +0.037 A 
ENDROOT
BRANCH  12  13
ATOM     13  C   LIG    1       24.417  35.274  17.958  0.00  0.00    +0.000 C 
ATOM     14  C   LIG    1       25.485  34.775  17.417  0.00  0.00    +0.000 C 
BRANCH  14  15
ATOM     15  C   LIG    1       25.507  33.595  16.563  0.00  0.00    +0.006 A 
ATOM     16  C   LIG    1       25.870  33.631  15.236  0.00  0.00    +0.042 A 
ATOM     17  C   LIG    1       25.885  32.502  14.445  0.00  0.00    +0.199 A 
ATOM     18  O   LIG    1       26.248  32.530  13.106  0.00  0.00    -0.286 OA
ATOM     19  C   LIG    1       25.520  31.290  15.004  0.00  0.00    +0.084 A 
ATOM     20  C   LIG    1       25.158  31.230  16.315  0.00  0.00    +0.199 A 
ATOM     21  O   LIG    1       24.801  30.010  16.846  0.00  0.00    -0.286 OA
ATOM     22  C   LIG    1       25.149  32.376  17.097  0.00  0.00    +0.042 A 
ENDBRANCH  14  15
ENDBRANCH  12  13
BRANCH   9   8
ATOM      8  O   LIG    1       24.236  39.667  21.473  0.00  0.00    -0.475 OA
BRANCH   8   7
ATOM      7  C   LIG    1       25.015  40.828  21.268  0.00  0.00    +0.205 C 
BRANCH   7   6
ATOM      6  C   LIG    1       24.163  42.054  21.014  0.00  0.00    +0.047 C 
BRANCH   6   5
ATOM      5  C   LIG    1       24.667  42.674  19.723  0.00  0.00    +0.004 C 
BRANCH   5   4
ATOM      4  C   LIG    1       23.590  42.545  18.667  0.00  0.00    +0.012 C 
BRANCH   4   3
ATOM      3  C   LIG    1       23.461  43.836  17.905  0.00  0.00    +0.114 C 
BRANCH   3   2
ATOM      1  O   LIG    1       24.345  42.705  16.015  0.00  0.00    -0.246 OA
ATOM      2  C   LIG    1       24.223  43.781  16.624  0.00  0.00    +0.365 C 
ATOM     25  O   LIG    1       24.796  44.931  16.113  0.00  0.00    -0.246 OA
ENDBRANCH   3   2
ENDBRANCH   4   3
ENDBRANCH   5   4
ENDBRANCH   6   5
ENDBRANCH   7   6
ENDBRANCH   8   7
ENDBRANCH   9   8
TORSDOF 9
ENDMDL
