REMARK  Name = 
REMARK                            x       y       z     vdW  Elec       q    Type
REMARK                         _______ _______ _______ _____ _____    ______ ____
ROOT
ATOM     12  C   LIG    1       -0.905  -0.647   1.488  0.00  0.00    +0.141 A 
ATOM     13  C   LIG    1       -0.432  -0.740   2.763  0.00  0.00    +0.037 A 
ATOM     14  C   LIG    1        0.893  -0.631   3.054  0.00  0.00    +0.003 A 
ATOM     15  C   LIG    1        1.867  -0.415   2.062  0.00  0.00    +0.000 A 
ATOM     26  C   LIG    1        1.374  -0.327   0.813  0.00  0.00    +0.003 A 
ATOM     27  C   LIG    1        0.017  -0.434   0.476  0.00  0.00    +0.037 A 
ENDROOT
BRANCH  15  16
ATOM     16  C   LIG    1        3.167  -0.340   2.631  0.00  0.00    +0.000 C 
ATOM     17  C   LIG    1        4.298  -0.171   2.203  0.00  0.00    +0.000 C 
BRANCH  17  18
ATOM     18  C   LIG    1        4.555   0.012   0.831  0.00  0.00    +0.006 A 
ATOM     19  C   LIG    1        5.875   0.191   0.501  0.00  0.00    +0.042 A 
ATOM     20  C   LIG    1        6.257   0.383  -0.834  0.00  0.00    +0.199 A 
ATOM     21  O   LIG    1        7.600   0.560  -1.125  0.00  0.00    -0.286 OA
ATOM     22  C   LIG    1        5.309   0.391  -1.808  0.00  0.00    +0.084 A 
ATOM     23  C   LIG    1        3.974   0.214  -1.511  0.00  0.00    +0.199 A 
ATOM     24  O   LIG    1        2.989   0.219  -2.489  0.00  0.00    -0.286 OA
ATOM     25  C   LIG    1        3.676   0.031  -0.170  0.00  0.00    +0.042 A 
ENDBRANCH  17  18
ENDBRANCH  15  16
BRANCH  12  11
ATOM     11  O   LIG    1       -2.205  -0.759   1.247  0.00  0.00    -0.450 OA
BRANCH  11  10
ATOM      3  C   LIG    1       -4.564  -0.415  -1.187  0.00  0.00    +0.185 C 
ATOM      4  C   LIG    1       -5.215   1.098  -0.742  0.00  0.00    +0.215 C 
ATOM      5  O   LIG    1       -6.235   0.645   0.240  0.00  0.00    -0.218 OA
ATOM      6  C   LIG    1       -4.101   1.458   0.472  0.00  0.00    +0.221 C 
ATOM      7  O   LIG    1       -3.982   2.884   0.065  0.00  0.00    -0.217 OA
ATOM      8  C   LIG    1       -2.670   1.028  -0.261  0.00  0.00    +0.254 C 
ATOM      9  O   LIG    1       -2.997   1.111  -1.694  0.00  0.00    -0.213 OA
ATOM     10  C   LIG    1       -2.757  -0.657  -0.177  0.00  0.00    +0.322 C 
ATOM     28  O   LIG    1       -4.201  -0.855   0.204  0.00  0.00    -0.316 OA
BRANCH   3   2
ATOM      1  O   LIG    1       -5.637  -2.574  -1.143  0.00  0.00    -0.218 OA
ATOM      2  C   LIG    1       -5.950  -1.261  -1.294  0.00  0.00    +0.214 C 
ENDBRANCH   3   2
ENDBRANCH  11  10
ENDBRANCH  12  11
TORSDOF 5
