MODEL 1
REMARK VINA RESULT:      -6.3      0.000      0.000
REMARK  Name = 
REMARK                            x       y       z     vdW  Elec       q    Type
REMARK                         _______ _______ _______ _____ _____    ______ ____
ROOT
ATOM     12  C   LIG    1        4.021  60.700   8.840  0.00  0.00    +0.141 A 
ATOM     13  C   LIG    1        3.960  61.615   9.883  0.00  0.00    +0.037 A 
ATOM     14  C   LIG    1        2.815  61.763  10.609  0.00  0.00    +0.003 A 
ATOM     15  C   LIG    1        1.671  61.083  10.418  0.00  0.00    +0.000 A 
ATOM     26  C   LIG    1        1.711  60.140   9.354  0.00  0.00    +0.003 A 
ATOM     27  C   LIG    1        2.852  60.003   8.641  0.00  0.00    +0.037 A 
ENDROOT
BRANCH  15  16
ATOM     16  C   LIG    1        0.433  61.175  11.127  0.00  0.00    +0.000 C 
ATOM     17  C   LIG    1        0.100  60.589  12.158  0.00  0.00    +0.000 C 
BRANCH  17  18
ATOM     18  C   LIG    1        0.878  59.662  12.908  0.00  0.00    +0.006 A 
ATOM     19  C   LIG    1        1.584  60.263  13.962  0.00  0.00    +0.042 A 
ATOM     20  C   LIG    1        2.380  59.515  14.781  0.00  0.00    +0.199 A 
ATOM     21  O   LIG    1        3.070  60.162  15.827  0.00  0.00    -0.286 OA
ATOM     22  C   LIG    1        2.513  58.154  14.600  0.00  0.00    +0.084 A 
ATOM     23  C   LIG    1        1.815  57.537  13.554  0.00  0.00    +0.199 A 
ATOM     24  O   LIG    1        1.933  56.171  13.352  0.00  0.00    -0.286 OA
ATOM     25  C   LIG    1        1.039  58.331  12.771  0.00  0.00    +0.042 A 
ENDBRANCH  17  18
ENDBRANCH  15  16
BRANCH  12  11
ATOM     11  O   LIG    1        5.178  60.534   8.088  0.00  0.00    -0.450 OA
BRANCH  11  10
ATOM      3  C   LIG    1        6.168  57.373   9.263  0.00  0.00    +0.185 C 
ATOM      4  C   LIG    1        7.860  57.646   9.043  0.00  0.00    +0.215 C 
ATOM      5  O   LIG    1        8.145  56.182   8.930  0.00  0.00    -0.218 OA
ATOM      6  C   LIG    1        7.631  57.776   7.353  0.00  0.00    +0.221 C 
ATOM      7  O   LIG    1        9.068  58.170   7.120  0.00  0.00    -0.217 OA
ATOM      8  C   LIG    1        7.106  59.391   7.296  0.00  0.00    +0.254 C 
ATOM      9  O   LIG    1        7.762  59.968   8.479  0.00  0.00    -0.213 OA
ATOM     10  C   LIG    1        5.532  59.016   7.933  0.00  0.00    +0.322 C 
ATOM     28  O   LIG    1        5.914  58.869   9.412  0.00  0.00    -0.316 OA
BRANCH   3   2
ATOM      1  O   LIG    1        5.271  56.353  11.306  0.00  0.00    -0.218 OA
ATOM      2  C   LIG    1        6.316  57.080  10.874  0.00  0.00    +0.214 C 
ENDBRANCH   3   2
ENDBRANCH  11  10
ENDBRANCH  12  11
TORSDOF 5
ENDMDL
MODEL 2
REMARK VINA RESULT:      -6.1      1.535      2.927
REMARK  Name = 
REMARK                            x       y       z     vdW  Elec       q    Type
REMARK                         _______ _______ _______ _____ _____    ______ ____
ROOT
ATOM     12  C   LIG    1        3.684  60.032   8.693  0.00  0.00    +0.141 A 
ATOM     13  C   LIG    1        2.322  59.789   8.566  0.00  0.00    +0.037 A 
ATOM     14  C   LIG    1        1.418  60.510   9.289  0.00  0.00    +0.003 A 
ATOM     15  C   LIG    1        1.713  61.486  10.164  0.00  0.00    +0.000 A 
ATOM     26  C   LIG    1        3.103  61.752  10.311  0.00  0.00    +0.003 A 
ATOM     27  C   LIG    1        3.990  61.031   9.588  0.00  0.00    +0.037 A 
ENDROOT
BRANCH  15  16
ATOM     16  C   LIG    1        0.835  62.286  10.960  0.00  0.00    +0.000 C 
ATOM     17  C   LIG    1        0.308  62.000  12.035  0.00  0.00    +0.000 C 
BRANCH  17  18
ATOM     18  C   LIG    1        0.446  60.783  12.762  0.00  0.00    +0.006 A 
ATOM     19  C   LIG    1       -0.743  60.042  12.824  0.00  0.00    +0.042 A 
ATOM     20  C   LIG    1       -0.785  58.848  13.485  0.00  0.00    +0.199 A 
ATOM     21  O   LIG    1       -2.003  58.137  13.520  0.00  0.00    -0.286 OA
ATOM     22  C   LIG    1        0.335  58.337  14.108  0.00  0.00    +0.084 A 
ATOM     23  C   LIG    1        1.531  59.064  14.056  0.00  0.00    +0.199 A 
ATOM     24  O   LIG    1        2.669  58.570  14.676  0.00  0.00    -0.286 OA
ATOM     25  C   LIG    1        1.513  60.245  13.385  0.00  0.00    +0.042 A 
ENDBRANCH  17  18
ENDBRANCH  15  16
BRANCH  12  11
ATOM     11  O   LIG    1        4.621  59.310   7.964  0.00  0.00    -0.450 OA
BRANCH  11  10
ATOM      3  C   LIG    1        8.019  58.577   8.479  0.00  0.00    +0.185 C 
ATOM      4  C   LIG    1        7.830  56.863   8.362  0.00  0.00    +0.215 C 
ATOM      5  O   LIG    1        9.058  56.609   9.178  0.00  0.00    -0.218 OA
ATOM      6  C   LIG    1        6.847  56.865   9.761  0.00  0.00    +0.221 C 
ATOM      7  O   LIG    1        6.523  55.399   9.618  0.00  0.00    -0.217 OA
ATOM      8  C   LIG    1        5.382  57.330   9.035  0.00  0.00    +0.254 C 
ATOM      9  O   LIG    1        5.542  56.818   7.666  0.00  0.00    -0.213 OA
ATOM     10  C   LIG    1        5.879  58.984   8.837  0.00  0.00    +0.322 C 
ATOM     28  O   LIG    1        6.785  58.804   7.612  0.00  0.00    -0.316 OA
BRANCH   3   2
ATOM      1  O   LIG    1       10.117  59.461   7.565  0.00  0.00    -0.218 OA
ATOM      2  C   LIG    1        9.095  58.651   7.238  0.00  0.00    +0.214 C 
ENDBRANCH   3   2
ENDBRANCH  11  10
ENDBRANCH  12  11
TORSDOF 5
ENDMDL
MODEL 3
REMARK VINA RESULT:      -6.1     18.839     21.459
REMARK  Name = 
REMARK                            x       y       z     vdW  Elec       q    Type
REMARK                         _______ _______ _______ _____ _____    ______ ____
ROOT
ATOM     12  C   LIG    1       20.862  69.689  12.895  0.00  0.00    +0.141 A 
ATOM     13  C   LIG    1       20.095  70.725  13.413  0.00  0.00    +0.037 A 
ATOM     14  C   LIG    1       20.570  71.496  14.433  0.00  0.00    +0.003 A 
ATOM     15  C   LIG    1       21.767  71.359  15.029  0.00  0.00    +0.000 A 
ATOM     26  C   LIG    1       22.569  70.303  14.515  0.00  0.00    +0.003 A 
ATOM     27  C   LIG    1       22.087  69.545  13.503  0.00  0.00    +0.037 A 
ENDROOT
BRANCH  15  16
ATOM     16  C   LIG    1       22.339  72.117  16.097  0.00  0.00    +0.000 C 
ATOM     17  C   LIG    1       23.129  73.059  16.025  0.00  0.00    +0.000 C 
BRANCH  17  18
ATOM     18  C   LIG    1       23.676  73.632  14.842  0.00  0.00    +0.006 A 
ATOM     19  C   LIG    1       25.022  73.293  14.637  0.00  0.00    +0.042 A 
ATOM     20  C   LIG    1       25.699  73.760  13.548  0.00  0.00    +0.199 A 
ATOM     21  O   LIG    1       27.051  73.392  13.383  0.00  0.00    -0.286 OA
ATOM     22  C   LIG    1       25.084  74.576  12.620  0.00  0.00    +0.084 A 
ATOM     23  C   LIG    1       23.741  74.924  12.808  0.00  0.00    +0.199 A 
ATOM     24  O   LIG    1       23.102  75.742  11.889  0.00  0.00    -0.286 OA
ATOM     25  C   LIG    1       23.118  74.430  13.910  0.00  0.00    +0.042 A 
ENDBRANCH  17  18
ENDBRANCH  15  16
BRANCH  12  11
ATOM     11  O   LIG    1       20.397  68.892  11.855  0.00  0.00    -0.450 OA
BRANCH  11  10
ATOM      3  C   LIG    1       16.938  68.272  11.873  0.00  0.00    +0.185 C 
ATOM      4  C   LIG    1       16.929  67.390  10.387  0.00  0.00    +0.215 C 
ATOM      5  O   LIG    1       15.489  67.709  10.134  0.00  0.00    -0.218 OA
ATOM      6  C   LIG    1       17.432  68.788   9.540  0.00  0.00    +0.221 C 
ATOM      7  O   LIG    1       17.590  68.031   8.245  0.00  0.00    -0.217 OA
ATOM      8  C   LIG    1       19.096  68.698   9.877  0.00  0.00    +0.254 C 
ATOM      9  O   LIG    1       19.294  67.252  10.056  0.00  0.00    -0.213 OA
ATOM     10  C   LIG    1       18.902  69.219  11.524  0.00  0.00    +0.322 C 
ATOM     28  O   LIG    1       18.395  67.899  12.121  0.00  0.00    -0.316 OA
BRANCH   3   2
ATOM      1  O   LIG    1       17.277  66.436  13.463  0.00  0.00    -0.218 OA
ATOM      2  C   LIG    1       16.309  67.025  12.740  0.00  0.00    +0.214 C 
ENDBRANCH   3   2
ENDBRANCH  11  10
ENDBRANCH  12  11
TORSDOF 5
ENDMDL
MODEL 4
REMARK VINA RESULT:      -6.1     37.784     41.283
REMARK  Name = 
REMARK                            x       y       z     vdW  Elec       q    Type
REMARK                         _______ _______ _______ _____ _____    ______ ____
ROOT
ATOM     12  C   LIG    1       31.511  79.544 -11.410  0.00  0.00    +0.141 A 
ATOM     13  C   LIG    1       31.255  80.909 -11.384  0.00  0.00    +0.037 A 
ATOM     14  C   LIG    1       30.113  81.389 -10.814  0.00  0.00    +0.003 A 
ATOM     15  C   LIG    1       29.150  80.647 -10.240  0.00  0.00    +0.000 A 
ATOM     26  C   LIG    1       29.391  79.245 -10.256  0.00  0.00    +0.003 A 
ATOM     27  C   LIG    1       30.527  78.781 -10.824  0.00  0.00    +0.037 A 
ENDROOT
BRANCH  15  16
ATOM     16  C   LIG    1       27.930  81.065  -9.624  0.00  0.00    +0.000 C 
ATOM     17  C   LIG    1       26.850  81.313 -10.162  0.00  0.00    +0.000 C 
BRANCH  17  18
ATOM     18  C   LIG    1       26.547  81.242 -11.552  0.00  0.00    +0.006 A 
ATOM     19  C   LIG    1       25.828  80.087 -11.899  0.00  0.00    +0.042 A 
ATOM     20  C   LIG    1       25.456  79.863 -13.193  0.00  0.00    +0.199 A 
ATOM     21  O   LIG    1       24.734  78.689 -13.495  0.00  0.00    -0.286 OA
ATOM     22  C   LIG    1       25.773  80.759 -14.193  0.00  0.00    +0.084 A 
ATOM     23  C   LIG    1       26.489  81.916 -13.864  0.00  0.00    +0.199 A 
ATOM     24  O   LIG    1       26.819  82.831 -14.853  0.00  0.00    -0.286 OA
ATOM     25  C   LIG    1       26.833  82.087 -12.561  0.00  0.00    +0.042 A 
ENDBRANCH  17  18
ENDBRANCH  15  16
BRANCH  12  11
ATOM     11  O   LIG    1       32.669  79.034 -11.986  0.00  0.00    -0.450 OA
BRANCH  11  10
ATOM      3  C   LIG    1       35.706  80.745 -11.538  0.00  0.00    +0.185 C 
ATOM      4  C   LIG    1       36.699  79.459 -12.127  0.00  0.00    +0.215 C 
ATOM      5  O   LIG    1       37.887  79.940 -11.356  0.00  0.00    -0.218 OA
ATOM      6  C   LIG    1       36.203  78.465 -10.826  0.00  0.00    +0.221 C 
ATOM      7  O   LIG    1       36.929  77.263 -11.377  0.00  0.00    -0.217 OA
ATOM      8  C   LIG    1       34.716  77.945 -11.462  0.00  0.00    +0.254 C 
ATOM      9  O   LIG    1       34.961  78.014 -12.910  0.00  0.00    -0.213 OA
ATOM     10  C   LIG    1       33.936  79.474 -11.179  0.00  0.00    +0.322 C 
ATOM     28  O   LIG    1       34.523  80.251 -12.365  0.00  0.00    -0.316 OA
BRANCH   3   2
ATOM      1  O   LIG    1       36.207  83.064 -12.160  0.00  0.00    -0.218 OA
ATOM      2  C   LIG    1       36.243  81.817 -12.662  0.00  0.00    +0.214 C 
ENDBRANCH   3   2
ENDBRANCH  11  10
ENDBRANCH  12  11
TORSDOF 5
ENDMDL
MODEL 5
REMARK VINA RESULT:      -6.1     29.189     34.700
REMARK  Name = 
REMARK                            x       y       z     vdW  Elec       q    Type
REMARK                         _______ _______ _______ _____ _____    ______ ____
ROOT
ATOM     12  C   LIG    1       31.029  61.001  -8.085  0.00  0.00    +0.141 A 
ATOM     13  C   LIG    1       31.062  61.804  -9.219  0.00  0.00    +0.037 A 
ATOM     14  C   LIG    1       32.247  62.091  -9.830  0.00  0.00    +0.003 A 
ATOM     15  C   LIG    1       33.458  61.661  -9.437  0.00  0.00    +0.000 A 
ATOM     26  C   LIG    1       33.448  60.837  -8.278  0.00  0.00    +0.003 A 
ATOM     27  C   LIG    1       32.267  60.558  -7.680  0.00  0.00    +0.037 A 
ENDROOT
BRANCH  15  16
ATOM     16  C   LIG    1       34.741  61.913 -10.015  0.00  0.00    +0.000 C 
ATOM     17  C   LIG    1       35.319  61.274 -10.894  0.00  0.00    +0.000 C 
BRANCH  17  18
ATOM     18  C   LIG    1       34.846  60.107 -11.560  0.00  0.00    +0.006 A 
ATOM     19  C   LIG    1       35.296  58.916 -10.969  0.00  0.00    +0.042 A 
ATOM     20  C   LIG    1       34.934  57.705 -11.485  0.00  0.00    +0.199 A 
ATOM     21  O   LIG    1       35.409  56.534 -10.857  0.00  0.00    -0.286 OA
ATOM     22  C   LIG    1       34.121  57.615 -12.595  0.00  0.00    +0.084 A 
ATOM     23  C   LIG    1       33.663  58.794 -13.197  0.00  0.00    +0.199 A 
ATOM     24  O   LIG    1       32.844  58.728 -14.315  0.00  0.00    -0.286 OA
ATOM     25  C   LIG    1       34.055  59.970 -12.641  0.00  0.00    +0.042 A 
ENDBRANCH  17  18
ENDBRANCH  15  16
BRANCH  12  11
ATOM     11  O   LIG    1       29.833  60.695  -7.448  0.00  0.00    -0.450 OA
BRANCH  11  10
ATOM      3  C   LIG    1       29.156  57.407  -8.490  0.00  0.00    +0.185 C 
ATOM      4  C   LIG    1       27.467  57.473  -8.132  0.00  0.00    +0.215 C 
ATOM      5  O   LIG    1       27.379  55.988  -7.975  0.00  0.00    -0.218 OA
ATOM      6  C   LIG    1       27.816  57.672  -6.469  0.00  0.00    +0.221 C 
ATOM      7  O   LIG    1       26.365  57.891  -6.121  0.00  0.00    -0.217 OA
ATOM      8  C   LIG    1       28.136  59.341  -6.480  0.00  0.00    +0.254 C 
ATOM      9  O   LIG    1       27.318  59.803  -7.611  0.00  0.00    -0.213 OA
ATOM     10  C   LIG    1       29.687  59.150  -7.242  0.00  0.00    +0.322 C 
ATOM     28  O   LIG    1       29.206  58.920  -8.681  0.00  0.00    -0.316 OA
BRANCH   3   2
ATOM      1  O   LIG    1       29.872  56.223 -10.515  0.00  0.00    -0.218 OA
ATOM      2  C   LIG    1       28.914  57.059 -10.078  0.00  0.00    +0.214 C 
ENDBRANCH   3   2
ENDBRANCH  11  10
ENDBRANCH  12  11
TORSDOF 5
ENDMDL
MODEL 6
REMARK VINA RESULT:      -6.1     38.395     41.001
REMARK  Name = 
REMARK                            x       y       z     vdW  Elec       q    Type
REMARK                         _______ _______ _______ _____ _____    ______ ____
ROOT
ATOM     12  C   LIG    1       30.900  80.440 -11.791  0.00  0.00    +0.141 A 
ATOM     13  C   LIG    1       30.020  81.045 -10.903  0.00  0.00    +0.037 A 
ATOM     14  C   LIG    1       28.691  80.739 -10.926  0.00  0.00    +0.003 A 
ATOM     15  C   LIG    1       28.101  79.865 -11.760  0.00  0.00    +0.000 A 
ATOM     26  C   LIG    1       28.984  79.233 -12.679  0.00  0.00    +0.003 A 
ATOM     27  C   LIG    1       30.299  79.545 -12.647  0.00  0.00    +0.037 A 
ENDROOT
BRANCH  15  16
ATOM     16  C   LIG    1       26.725  79.487 -11.852  0.00  0.00    +0.000 C 
ATOM     17  C   LIG    1       25.824  80.041 -12.481  0.00  0.00    +0.000 C 
BRANCH  17  18
ATOM     18  C   LIG    1       25.931  81.212 -13.285  0.00  0.00    +0.006 A 
ATOM     19  C   LIG    1       25.802  82.399 -12.547  0.00  0.00    +0.042 A 
ATOM     20  C   LIG    1       25.880  83.614 -13.165  0.00  0.00    +0.199 A 
ATOM     21  O   LIG    1       25.745  84.780 -12.383  0.00  0.00    -0.286 OA
ATOM     22  C   LIG    1       26.087  83.711 -14.525  0.00  0.00    +0.084 A 
ATOM     23  C   LIG    1       26.218  82.537 -15.277  0.00  0.00    +0.199 A 
ATOM     24  O   LIG    1       26.426  82.610 -16.646  0.00  0.00    -0.286 OA
ATOM     25  C   LIG    1       26.132  81.357 -14.609  0.00  0.00    +0.042 A 
ENDBRANCH  17  18
ENDBRANCH  15  16
BRANCH  12  11
ATOM     11  O   LIG    1       32.257  80.737 -11.785  0.00  0.00    -0.450 OA
BRANCH  11  10
ATOM      3  C   LIG    1       34.022  77.916 -10.655  0.00  0.00    +0.185 C 
ATOM      4  C   LIG    1       35.539  78.731 -10.501  0.00  0.00    +0.215 C 
ATOM      5  O   LIG    1       36.309  77.457 -10.655  0.00  0.00    -0.218 OA
ATOM      6  C   LIG    1       35.574  79.007 -12.189  0.00  0.00    +0.221 C 
ATOM      7  O   LIG    1       36.816  79.857 -12.093  0.00  0.00    -0.217 OA
ATOM      8  C   LIG    1       34.560  80.370 -12.239  0.00  0.00    +0.254 C 
ATOM      9  O   LIG    1       34.773  80.960 -10.910  0.00  0.00    -0.213 OA
ATOM     10  C   LIG    1       33.115  79.441 -11.969  0.00  0.00    +0.322 C 
ATOM     28  O   LIG    1       33.264  79.225 -10.457  0.00  0.00    -0.316 OA
BRANCH   3   2
ATOM      1  O   LIG    1       33.667  76.169  -8.971  0.00  0.00    -0.218 OA
ATOM      2  C   LIG    1       33.979  77.473  -9.072  0.00  0.00    +0.214 C 
ENDBRANCH   3   2
ENDBRANCH  11  10
ENDBRANCH  12  11
TORSDOF 5
ENDMDL
MODEL 7
REMARK VINA RESULT:      -5.9     14.731     17.441
REMARK  Name = 
REMARK                            x       y       z     vdW  Elec       q    Type
REMARK                         _______ _______ _______ _____ _____    ______ ____
ROOT
ATOM     12  C   LIG    1       19.589  66.981  14.857  0.00  0.00    +0.141 A 
ATOM     13  C   LIG    1       18.235  67.132  14.584  0.00  0.00    +0.037 A 
ATOM     14  C   LIG    1       17.815  67.992  13.612  0.00  0.00    +0.003 A 
ATOM     15  C   LIG    1       18.610  68.756  12.844  0.00  0.00    +0.000 A 
ATOM     26  C   LIG    1       20.001  68.619  13.107  0.00  0.00    +0.003 A 
ATOM     27  C   LIG    1       20.405  67.763  14.073  0.00  0.00    +0.037 A 
ENDROOT
BRANCH  15  16
ATOM     16  C   LIG    1       18.256  69.679  11.811  0.00  0.00    +0.000 C 
ATOM     17  C   LIG    1       17.825  69.433  10.684  0.00  0.00    +0.000 C 
BRANCH  17  18
ATOM     18  C   LIG    1       17.569  68.148  10.125  0.00  0.00    +0.006 A 
ATOM     19  C   LIG    1       16.229  67.751  10.251  0.00  0.00    +0.042 A 
ATOM     20  C   LIG    1       15.813  66.544   9.767  0.00  0.00    +0.199 A 
ATOM     21  O   LIG    1       14.456  66.187   9.916  0.00  0.00    -0.286 OA
ATOM     22  C   LIG    1       16.692  65.684   9.142  0.00  0.00    +0.084 A 
ATOM     23  C   LIG    1       18.033  66.064   9.007  0.00  0.00    +0.199 A 
ATOM     24  O   LIG    1       18.934  65.215   8.383  0.00  0.00    -0.286 OA
ATOM     25  C   LIG    1       18.389  67.275   9.508  0.00  0.00    +0.042 A 
ENDBRANCH  17  18
ENDBRANCH  15  16
BRANCH  12  11
ATOM     11  O   LIG    1       20.038  66.110  15.842  0.00  0.00    -0.450 OA
BRANCH  11  10
ATOM      3  C   LIG    1       19.358  62.662  15.776  0.00  0.00    +0.185 C 
ATOM      4  C   LIG    1       20.653  62.227  16.834  0.00  0.00    +0.215 C 
ATOM      5  O   LIG    1       20.720  60.838  16.282  0.00  0.00    -0.218 OA
ATOM      6  C   LIG    1       21.793  62.785  15.688  0.00  0.00    +0.221 C 
ATOM      7  O   LIG    1       22.950  62.568  16.631  0.00  0.00    -0.217 OA
ATOM      8  C   LIG    1       21.719  64.444  16.051  0.00  0.00    +0.254 C 
ATOM      9  O   LIG    1       21.333  64.430  17.469  0.00  0.00    -0.213 OA
ATOM     10  C   LIG    1       20.174  64.654  15.282  0.00  0.00    +0.322 C 
ATOM     28  O   LIG    1       19.289  64.058  16.385  0.00  0.00    -0.316 OA
BRANCH   3   2
ATOM      1  O   LIG    1       16.982  62.285  16.254  0.00  0.00    -0.218 OA
ATOM      2  C   LIG    1       18.203  62.012  16.748  0.00  0.00    +0.214 C 
ENDBRANCH   3   2
ENDBRANCH  11  10
ENDBRANCH  12  11
TORSDOF 5
ENDMDL
MODEL 8
REMARK VINA RESULT:      -5.9      1.677      3.174
REMARK  Name = 
REMARK                            x       y       z     vdW  Elec       q    Type
REMARK                         _______ _______ _______ _____ _____    ______ ____
ROOT
ATOM     12  C   LIG    1        4.112  59.668   8.801  0.00  0.00    +0.141 A 
ATOM     13  C   LIG    1        4.507  60.827   9.456  0.00  0.00    +0.037 A 
ATOM     14  C   LIG    1        3.584  61.635  10.052  0.00  0.00    +0.003 A 
ATOM     15  C   LIG    1        2.257  61.424  10.080  0.00  0.00    +0.000 A 
ATOM     26  C   LIG    1        1.830  60.242   9.415  0.00  0.00    +0.003 A 
ATOM     27  C   LIG    1        2.754  59.448   8.826  0.00  0.00    +0.037 A 
ENDROOT
BRANCH  15  16
ATOM     16  C   LIG    1        1.226  62.214  10.678  0.00  0.00    +0.000 C 
ATOM     17  C   LIG    1        0.573  61.972  11.693  0.00  0.00    +0.000 C 
BRANCH  17  18
ATOM     18  C   LIG    1        0.686  60.828  12.535  0.00  0.00    +0.006 A 
ATOM     19  C   LIG    1       -0.441  59.994  12.483  0.00  0.00    +0.042 A 
ATOM     20  C   LIG    1       -0.497  58.853  13.231  0.00  0.00    +0.199 A 
ATOM     21  O   LIG    1       -1.650  58.045  13.146  0.00  0.00    -0.286 OA
ATOM     22  C   LIG    1        0.548  58.488  14.055  0.00  0.00    +0.084 A 
ATOM     23  C   LIG    1        1.681  59.308  14.119  0.00  0.00    +0.199 A 
ATOM     24  O   LIG    1        2.742  58.961  14.940  0.00  0.00    -0.286 OA
ATOM     25  C   LIG    1        1.680  60.430  13.353  0.00  0.00    +0.042 A 
ENDBRANCH  17  18
ENDBRANCH  15  16
BRANCH  12  11
ATOM     11  O   LIG    1        5.036  58.831   8.187  0.00  0.00    -0.450 OA
BRANCH  11  10
ATOM      3  C   LIG    1        7.925  59.729   6.399  0.00  0.00    +0.185 C 
ATOM      4  C   LIG    1        8.869  58.387   6.940  0.00  0.00    +0.215 C 
ATOM      5  O   LIG    1       10.154  59.118   6.712  0.00  0.00    -0.218 OA
ATOM      6  C   LIG    1        8.780  58.958   8.550  0.00  0.00    +0.221 C 
ATOM      7  O   LIG    1        9.465  57.731   9.097  0.00  0.00    -0.217 OA
ATOM      8  C   LIG    1        7.239  58.357   8.942  0.00  0.00    +0.254 C 
ATOM      9  O   LIG    1        7.137  57.181   8.066  0.00  0.00    -0.213 OA
ATOM     10  C   LIG    1        6.410  59.557   7.995  0.00  0.00    +0.322 C 
ATOM     28  O   LIG    1        6.634  58.945   6.606  0.00  0.00    -0.316 OA
BRANCH   3   2
ATOM      1  O   LIG    1        8.431  60.432   4.104  0.00  0.00    -0.218 OA
ATOM      2  C   LIG    1        8.089  59.340   4.810  0.00  0.00    +0.214 C 
ENDBRANCH   3   2
ENDBRANCH  11  10
ENDBRANCH  12  11
TORSDOF 5
ENDMDL
MODEL 9
REMARK VINA RESULT:      -5.8      2.998      8.322
REMARK  Name = 
REMARK                            x       y       z     vdW  Elec       q    Type
REMARK                         _______ _______ _______ _____ _____    ______ ____
ROOT
ATOM     12  C   LIG    1        4.924  59.803   8.403  0.00  0.00    +0.141 A 
ATOM     13  C   LIG    1        6.050  60.615   8.393  0.00  0.00    +0.037 A 
ATOM     14  C   LIG    1        6.988  60.487   7.412  0.00  0.00    +0.003 A 
ATOM     15  C   LIG    1        6.944  59.613   6.393  0.00  0.00    +0.000 A 
ATOM     26  C   LIG    1        5.799  58.770   6.383  0.00  0.00    +0.003 A 
ATOM     27  C   LIG    1        4.875  58.905   7.361  0.00  0.00    +0.037 A 
ENDROOT
BRANCH  15  16
ATOM     16  C   LIG    1        7.878  59.413   5.329  0.00  0.00    +0.000 C 
ATOM     17  C   LIG    1        8.961  58.828   5.365  0.00  0.00    +0.000 C 
BRANCH  17  18
ATOM     18  C   LIG    1        9.559  58.197   6.494  0.00  0.00    +0.006 A 
ATOM     19  C   LIG    1       10.883  58.605   6.714  0.00  0.00    +0.042 A 
ATOM     20  C   LIG    1       11.603  58.095   7.756  0.00  0.00    +0.199 A 
ATOM     21  O   LIG    1       12.931  58.535   7.939  0.00  0.00    -0.286 OA
ATOM     22  C   LIG    1       11.054  57.170   8.619  0.00  0.00    +0.084 A 
ATOM     23  C   LIG    1        9.733  56.752   8.414  0.00  0.00    +0.199 A 
ATOM     24  O   LIG    1        9.160  55.822   9.269  0.00  0.00    -0.286 OA
ATOM     25  C   LIG    1        9.066  57.292   7.362  0.00  0.00    +0.042 A 
ENDBRANCH  17  18
ENDBRANCH  15  16
BRANCH  12  11
ATOM     11  O   LIG    1        3.955  59.917   9.393  0.00  0.00    -0.450 OA
BRANCH  11  10
ATOM      3  C   LIG    1        2.000  62.831   9.207  0.00  0.00    +0.185 C 
ATOM      4  C   LIG    1        0.983  62.424  10.543  0.00  0.00    +0.215 C 
ATOM      5  O   LIG    1       -0.132  63.283  10.036  0.00  0.00    -0.218 OA
ATOM      6  C   LIG    1        0.385  61.068   9.689  0.00  0.00    +0.221 C 
ATOM      7  O   LIG    1       -0.405  60.581  10.878  0.00  0.00    -0.217 OA
ATOM      8  C   LIG    1        1.660  59.991  10.006  0.00  0.00    +0.254 C 
ATOM      9  O   LIG    1        2.165  60.485  11.295  0.00  0.00    -0.213 OA
ATOM     10  C   LIG    1        2.744  60.776   8.896  0.00  0.00    +0.322 C 
ATOM     28  O   LIG    1        3.132  61.977   9.768  0.00  0.00    -0.316 OA
BRANCH   3   2
ATOM      1  O   LIG    1        3.234  64.941   8.999  0.00  0.00    -0.218 OA
ATOM      2  C   LIG    1        2.514  64.236   9.889  0.00  0.00    +0.214 C 
ENDBRANCH   3   2
ENDBRANCH  11  10
ENDBRANCH  12  11
TORSDOF 5
ENDMDL
MODEL 10
REMARK VINA RESULT:      -5.8      6.501     10.577
REMARK  Name = 
REMARK                            x       y       z     vdW  Elec       q    Type
REMARK                         _______ _______ _______ _____ _____    ______ ____
ROOT
ATOM     12  C   LIG    1       12.160  58.697   4.217  0.00  0.00    +0.141 A 
ATOM     13  C   LIG    1       11.254  57.649   4.108  0.00  0.00    +0.037 A 
ATOM     14  C   LIG    1       11.032  56.812   5.161  0.00  0.00    +0.003 A 
ATOM     15  C   LIG    1       11.625  56.891   6.365  0.00  0.00    +0.000 A 
ATOM     26  C   LIG    1       12.557  57.957   6.499  0.00  0.00    +0.003 A 
ATOM     27  C   LIG    1       12.769  58.780   5.448  0.00  0.00    +0.037 A 
ENDROOT
BRANCH  15  16
ATOM     16  C   LIG    1       11.452  56.061   7.516  0.00  0.00    +0.000 C 
ATOM     17  C   LIG    1       10.571  56.123   8.374  0.00  0.00    +0.000 C 
BRANCH  17  18
ATOM     18  C   LIG    1        9.492  57.051   8.432  0.00  0.00    +0.006 A 
ATOM     19  C   LIG    1        8.241  56.430   8.571  0.00  0.00    +0.042 A 
ATOM     20  C   LIG    1        7.099  57.176   8.642  0.00  0.00    +0.199 A 
ATOM     21  O   LIG    1        5.864  56.509   8.781  0.00  0.00    -0.286 OA
ATOM     22  C   LIG    1        7.140  58.553   8.580  0.00  0.00    +0.084 A 
ATOM     23  C   LIG    1        8.381  59.189   8.443  0.00  0.00    +0.199 A 
ATOM     24  O   LIG    1        8.447  60.573   8.379  0.00  0.00    -0.286 OA
ATOM     25  C   LIG    1        9.482  58.397   8.377  0.00  0.00    +0.042 A 
ENDBRANCH  17  18
ENDBRANCH  15  16
BRANCH  12  11
ATOM     11  O   LIG    1       12.401  59.561   3.156  0.00  0.00    -0.450 OA
BRANCH  11  10
ATOM      3  C   LIG    1       15.113  58.447   1.218  0.00  0.00    +0.185 C 
ATOM      4  C   LIG    1       15.145  59.830   0.182  0.00  0.00    +0.215 C 
ATOM      5  O   LIG    1       15.803  59.065  -0.922  0.00  0.00    -0.218 OA
ATOM      6  C   LIG    1       13.590  59.435  -0.412  0.00  0.00    +0.221 C 
ATOM      7  O   LIG    1       13.500  60.706  -1.218  0.00  0.00    -0.217 OA
ATOM      8  C   LIG    1       12.665  60.090   0.854  0.00  0.00    +0.254 C 
ATOM      9  O   LIG    1       13.538  61.166   1.345  0.00  0.00    -0.213 OA
ATOM     10  C   LIG    1       13.063  58.804   1.956  0.00  0.00    +0.322 C 
ATOM     28  O   LIG    1       14.476  59.263   2.339  0.00  0.00    -0.316 OA
BRANCH   3   2
ATOM      1  O   LIG    1       17.089  57.561   2.371  0.00  0.00    -0.218 OA
ATOM      2  C   LIG    1       16.660  58.663   1.730  0.00  0.00    +0.214 C 
ENDBRANCH   3   2
ENDBRANCH  11  10
ENDBRANCH  12  11
TORSDOF 5
ENDMDL
