REMARK  Name = 
REMARK                            x       y       z     vdW  Elec       q    Type
REMARK                         _______ _______ _______ _____ _____    ______ ____
ROOT
ATOM      4  C   LIG    1       -2.813   0.866  -0.602  0.00  0.00    +0.175 A 
ATOM      5  C   LIG    1       -1.538   0.397  -0.877  0.00  0.00    +0.040 A 
ATOM      6  C   LIG    1       -0.489   0.712  -0.015  0.00  0.00    +0.006 A 
ATOM     16  C   LIG    1       -0.673   1.481   1.115  0.00  0.00    +0.042 A 
ATOM     17  C   LIG    1       -1.947   1.938   1.373  0.00  0.00    +0.199 A 
ATOM     18  O   LIG    1       -2.255   2.720   2.478  0.00  0.00    -0.286 OA
ATOM     19  C   LIG    1       -2.985   1.627   0.520  0.00  0.00    +0.082 A 
ENDROOT
BRANCH   6   7
ATOM      7  C   LIG    1        0.821   0.169  -0.393  0.00  0.00    +0.000 C 
ATOM      8  C   LIG    1        1.909   0.372   0.310  0.00  0.00    +0.000 C 
BRANCH   8   9
ATOM      9  C   LIG    1        3.191  -0.194  -0.114  0.00  0.00    +0.000 A 
ATOM     10  C   LIG    1        3.315  -0.952  -1.248  0.00  0.00    +0.003 A 
ATOM     11  C   LIG    1        4.549  -1.456  -1.593  0.00  0.00    +0.042 A 
ATOM     12  C   LIG    1        5.655  -1.205  -0.810  0.00  0.00    +0.196 A 
ATOM     13  O   LIG    1        6.905  -1.724  -1.173  0.00  0.00    -0.287 OA
ATOM     14  C   LIG    1        5.542  -0.448   0.326  0.00  0.00    +0.042 A 
ATOM     15  C   LIG    1        4.308   0.061   0.679  0.00  0.00    +0.003 A 
ENDBRANCH   8   9
ENDBRANCH   6   7
BRANCH   4   3
ATOM      3  O   LIG    1       -3.817   0.525  -1.488  0.00  0.00    -0.359 OA
BRANCH   3   2
ATOM      1  O   LIG    1       -3.944  -1.795  -0.329  0.00  0.00    -0.336 OA
ATOM      2  S   LIG    1       -4.710  -0.898  -1.249  0.00  0.00    +0.043 S 
ATOM     20  O   LIG    1       -5.011  -1.631  -2.728  0.00  0.00    -0.259 OA
ATOM     21  O   LIG    1       -6.012  -0.564  -0.559  0.00  0.00    -0.336 OA
ENDBRANCH   3   2
ENDBRANCH   4   3
TORSDOF 4
