MODEL 1
REMARK VINA RESULT:      -6.4      0.000      0.000
REMARK  Name = 
REMARK                            x       y       z     vdW  Elec       q    Type
REMARK                         _______ _______ _______ _____ _____    ______ ____
ROOT
ATOM     12  C   LIG    1        3.370  60.644   8.714  0.00  0.00    +0.141 A 
ATOM     13  C   LIG    1        1.921  60.477   8.367  0.00  0.00    +0.037 A 
ATOM     14  C   LIG    1        0.867  61.132   9.209  0.00  0.00    +0.003 A 
ATOM     15  C   LIG    1        1.263  61.956  10.399  0.00  0.00    +0.000 A 
ATOM     26  C   LIG    1        2.713  62.123  10.746  0.00  0.00    +0.003 A 
ATOM     27  C   LIG    1        3.767  61.467   9.903  0.00  0.00    +0.037 A 
ENDROOT
BRANCH  15  16
ATOM     16  C   LIG    1        0.210  62.612  11.241  0.00  0.00    +0.000 C 
ATOM     17  C   LIG    1       -0.445  61.846  12.352  0.00  0.00    +0.000 C 
BRANCH  17  18
ATOM     18  C   LIG    1       -0.046  60.426  12.621  0.00  0.00    +0.006 A 
ATOM     19  C   LIG    1       -0.822  59.299  12.007  0.00  0.00    +0.042 A 
ATOM     20  C   LIG    1       -0.422  57.878  12.278  0.00  0.00    +0.199 A 
ATOM     21  O   LIG    1       -1.199  56.752  11.663  0.00  0.00    -0.286 OA
ATOM     22  C   LIG    1        0.753  57.585  13.162  0.00  0.00    +0.084 A 
ATOM     23  C   LIG    1        1.529  58.712  13.777  0.00  0.00    +0.199 A 
ATOM     24  O   LIG    1        2.704  58.418  14.660  0.00  0.00    -0.286 OA
ATOM     25  C   LIG    1        1.129  60.132  13.506  0.00  0.00    +0.042 A 
ENDBRANCH  17  18
ENDBRANCH  15  16
BRANCH  12  11
ATOM     11  O   LIG    1        4.424  59.988   7.871  0.00  0.00    -0.450 OA
BRANCH  11  10
ATOM      3  C   LIG    1        5.486  56.497   9.432  0.00  0.00    +0.185 C 
ATOM      4  C   LIG    1        6.962  56.700   9.602  0.00  0.00    +0.215 C 
ATOM      5  O   LIG    1        7.808  55.604  10.179  0.00  0.00    -0.218 OA
ATOM      6  C   LIG    1        7.593  57.999   9.194  0.00  0.00    +0.221 C 
ATOM      7  O   LIG    1        9.070  58.201   9.364  0.00  0.00    -0.217 OA
ATOM      8  C   LIG    1        6.747  59.094   8.618  0.00  0.00    +0.254 C 
ATOM      9  O   LIG    1        7.377  60.393   8.210  0.00  0.00    -0.213 OA
ATOM     10  C   LIG    1        5.270  58.892   8.448  0.00  0.00    +0.322 C 
ATOM     28  O   LIG    1        4.639  57.593   8.855  0.00  0.00    -0.316 OA
BRANCH   3   2
ATOM      1  O   LIG    1        4.553  54.932  11.285  0.00  0.00    -0.218 OA
ATOM      2  C   LIG    1        4.856  55.198   9.840  0.00  0.00    +0.214 C 
ENDBRANCH   3   2
ENDBRANCH  11  10
ENDBRANCH  12  11
TORSDOF 5
ENDMDL
MODEL 2
REMARK VINA RESULT:      -6.3     15.555     18.227
REMARK  Name = 
REMARK                            x       y       z     vdW  Elec       q    Type
REMARK                         _______ _______ _______ _____ _____    ______ ____
ROOT
ATOM     12  C   LIG    1       19.733  64.709  14.086  0.00  0.00    +0.141 A 
ATOM     13  C   LIG    1       19.350  65.661  15.180  0.00  0.00    +0.037 A 
ATOM     14  C   LIG    1       19.614  67.129  15.024  0.00  0.00    +0.003 A 
ATOM     15  C   LIG    1       20.261  67.646  13.772  0.00  0.00    +0.000 A 
ATOM     26  C   LIG    1       20.644  66.694  12.678  0.00  0.00    +0.003 A 
ATOM     27  C   LIG    1       20.380  65.225  12.835  0.00  0.00    +0.037 A 
ENDROOT
BRANCH  15  16
ATOM     16  C   LIG    1       20.525  69.114  13.615  0.00  0.00    +0.000 C 
ATOM     17  C   LIG    1       19.723  69.919  12.636  0.00  0.00    +0.000 C 
BRANCH  17  18
ATOM     18  C   LIG    1       18.658  69.256  11.814  0.00  0.00    +0.006 A 
ATOM     19  C   LIG    1       17.458  68.653  12.483  0.00  0.00    +0.042 A 
ATOM     20  C   LIG    1       16.394  67.991  11.659  0.00  0.00    +0.199 A 
ATOM     21  O   LIG    1       15.195  67.389  12.329  0.00  0.00    -0.286 OA
ATOM     22  C   LIG    1       16.529  67.931  10.167  0.00  0.00    +0.084 A 
ATOM     23  C   LIG    1       17.728  68.534   9.497  0.00  0.00    +0.199 A 
ATOM     24  O   LIG    1       17.862  68.474   8.005  0.00  0.00    -0.286 OA
ATOM     25  C   LIG    1       18.792  69.196  10.321  0.00  0.00    +0.042 A 
ENDBRANCH  17  18
ENDBRANCH  15  16
BRANCH  12  11
ATOM     11  O   LIG    1       19.469  63.241  14.244  0.00  0.00    -0.450 OA
BRANCH  11  10
ATOM      3  C   LIG    1       18.010  61.849  17.661  0.00  0.00    +0.185 C 
ATOM      4  C   LIG    1       19.269  61.418  18.353  0.00  0.00    +0.215 C 
ATOM      5  O   LIG    1       19.202  60.811  19.723  0.00  0.00    -0.218 OA
ATOM      6  C   LIG    1       20.596  61.595  17.675  0.00  0.00    +0.221 C 
ATOM      7  O   LIG    1       21.855  61.164  18.367  0.00  0.00    -0.217 OA
ATOM      8  C   LIG    1       20.662  62.203  16.305  0.00  0.00    +0.254 C 
ATOM      9  O   LIG    1       21.988  62.380  15.626  0.00  0.00    -0.213 OA
ATOM     10  C   LIG    1       19.403  62.633  15.613  0.00  0.00    +0.322 C 
ATOM     28  O   LIG    1       18.076  62.457  16.292  0.00  0.00    -0.316 OA
BRANCH   3   2
ATOM      1  O   LIG    1       15.490  62.450  17.870  0.00  0.00    -0.218 OA
ATOM      2  C   LIG    1       16.684  61.672  18.340  0.00  0.00    +0.214 C 
ENDBRANCH   3   2
ENDBRANCH  11  10
ENDBRANCH  12  11
TORSDOF 5
ENDMDL
MODEL 3
REMARK VINA RESULT:      -6.0      1.633      2.129
REMARK  Name = 
REMARK                            x       y       z     vdW  Elec       q    Type
REMARK                         _______ _______ _______ _____ _____    ______ ____
ROOT
ATOM     12  C   LIG    1        3.940  60.698   9.148  0.00  0.00    +0.141 A 
ATOM     13  C   LIG    1        3.350  61.626  10.168  0.00  0.00    +0.037 A 
ATOM     14  C   LIG    1        1.929  61.448  10.612  0.00  0.00    +0.003 A 
ATOM     15  C   LIG    1        1.097  60.339  10.035  0.00  0.00    +0.000 A 
ATOM     26  C   LIG    1        1.687  59.411   9.016  0.00  0.00    +0.003 A 
ATOM     27  C   LIG    1        3.109  59.590   8.573  0.00  0.00    +0.037 A 
ENDROOT
BRANCH  15  16
ATOM     16  C   LIG    1       -0.324  60.161  10.479  0.00  0.00    +0.000 C 
ATOM     17  C   LIG    1       -0.626  59.406  11.740  0.00  0.00    +0.000 C 
BRANCH  17  18
ATOM     18  C   LIG    1        0.492  58.830  12.556  0.00  0.00    +0.006 A 
ATOM     19  C   LIG    1        0.988  57.442  12.278  0.00  0.00    +0.042 A 
ATOM     20  C   LIG    1        2.107  56.867  13.095  0.00  0.00    +0.199 A 
ATOM     21  O   LIG    1        2.601  55.479  12.816  0.00  0.00    -0.286 OA
ATOM     22  C   LIG    1        2.730  57.680  14.191  0.00  0.00    +0.084 A 
ATOM     23  C   LIG    1        2.235  59.068  14.470  0.00  0.00    +0.199 A 
ATOM     24  O   LIG    1        2.859  59.880  15.565  0.00  0.00    -0.286 OA
ATOM     25  C   LIG    1        1.116  59.643  13.652  0.00  0.00    +0.042 A 
ENDBRANCH  17  18
ENDBRANCH  15  16
BRANCH  12  11
ATOM     11  O   LIG    1        5.362  60.877   8.705  0.00  0.00    -0.450 OA
BRANCH  11  10
ATOM      3  C   LIG    1        6.915  57.308   9.478  0.00  0.00    +0.185 C 
ATOM      4  C   LIG    1        8.160  57.353   8.643  0.00  0.00    +0.215 C 
ATOM      5  O   LIG    1        9.093  56.178   8.623  0.00  0.00    -0.218 OA
ATOM      6  C   LIG    1        8.473  58.573   7.829  0.00  0.00    +0.221 C 
ATOM      7  O   LIG    1        9.718  58.619   6.994  0.00  0.00    -0.217 OA
ATOM      8  C   LIG    1        7.540  59.747   7.850  0.00  0.00    +0.254 C 
ATOM      9  O   LIG    1        7.852  60.968   7.035  0.00  0.00    -0.213 OA
ATOM     10  C   LIG    1        6.295  59.702   8.684  0.00  0.00    +0.322 C 
ATOM     28  O   LIG    1        5.982  58.482   9.499  0.00  0.00    -0.316 OA
BRANCH   3   2
ATOM      1  O   LIG    1        6.362  56.212  11.768  0.00  0.00    -0.218 OA
ATOM      2  C   LIG    1        6.603  56.087  10.293  0.00  0.00    +0.214 C 
ENDBRANCH   3   2
ENDBRANCH  11  10
ENDBRANCH  12  11
TORSDOF 5
ENDMDL
MODEL 4
REMARK VINA RESULT:      -5.8     48.712     52.425
REMARK  Name = 
REMARK                            x       y       z     vdW  Elec       q    Type
REMARK                         _______ _______ _______ _____ _____    ______ ____
ROOT
ATOM     12  C   LIG    1       29.839  82.763 -28.223  0.00  0.00    +0.141 A 
ATOM     13  C   LIG    1       31.020  82.613 -29.135  0.00  0.00    +0.037 A 
ATOM     14  C   LIG    1       30.961  83.149 -30.534  0.00  0.00    +0.003 A 
ATOM     15  C   LIG    1       29.719  83.836 -31.022  0.00  0.00    +0.000 A 
ATOM     26  C   LIG    1       28.538  83.986 -30.111  0.00  0.00    +0.003 A 
ATOM     27  C   LIG    1       28.598  83.449 -28.711  0.00  0.00    +0.037 A 
ENDROOT
BRANCH  15  16
ATOM     16  C   LIG    1       29.660  84.372 -32.422  0.00  0.00    +0.000 C 
ATOM     17  C   LIG    1       29.343  83.452 -33.563  0.00  0.00    +0.000 C 
BRANCH  17  18
ATOM     18  C   LIG    1       29.085  81.998 -33.306  0.00  0.00    +0.006 A 
ATOM     19  C   LIG    1       30.181  80.994 -33.508  0.00  0.00    +0.042 A 
ATOM     20  C   LIG    1       29.921  79.538 -33.250  0.00  0.00    +0.199 A 
ATOM     21  O   LIG    1       31.018  78.535 -33.452  0.00  0.00    -0.286 OA
ATOM     22  C   LIG    1       28.566  79.088 -32.791  0.00  0.00    +0.084 A 
ATOM     23  C   LIG    1       27.470  80.091 -32.589  0.00  0.00    +0.199 A 
ATOM     24  O   LIG    1       26.116  79.641 -32.131  0.00  0.00    -0.286 OA
ATOM     25  C   LIG    1       27.729  81.546 -32.847  0.00  0.00    +0.042 A 
ENDBRANCH  17  18
ENDBRANCH  15  16
BRANCH  12  11
ATOM     11  O   LIG    1       29.899  82.226 -26.823  0.00  0.00    -0.450 OA
BRANCH  11  10
ATOM      3  C   LIG    1       26.880  82.845 -24.324  0.00  0.00    +0.185 C 
ATOM      4  C   LIG    1       26.101  81.576 -24.500  0.00  0.00    +0.215 C 
ATOM      5  O   LIG    1       24.834  81.359 -23.726  0.00  0.00    -0.218 OA
ATOM      6  C   LIG    1       26.587  80.523 -25.452  0.00  0.00    +0.221 C 
ATOM      7  O   LIG    1       25.808  79.254 -25.628  0.00  0.00    -0.217 OA
ATOM      8  C   LIG    1       27.853  80.740 -26.225  0.00  0.00    +0.254 C 
ATOM      9  O   LIG    1       28.341  79.688 -27.177  0.00  0.00    -0.213 OA
ATOM     10  C   LIG    1       28.633  82.009 -26.049  0.00  0.00    +0.322 C 
ATOM     28  O   LIG    1       28.146  83.062 -25.097  0.00  0.00    -0.316 OA
BRANCH   3   2
ATOM      1  O   LIG    1       26.163  83.556 -21.929  0.00  0.00    -0.218 OA
ATOM      2  C   LIG    1       26.392  83.897 -23.372  0.00  0.00    +0.214 C 
ENDBRANCH   3   2
ENDBRANCH  11  10
ENDBRANCH  12  11
TORSDOF 5
ENDMDL
MODEL 5
REMARK VINA RESULT:      -5.8     16.243     18.740
REMARK  Name = 
REMARK                            x       y       z     vdW  Elec       q    Type
REMARK                         _______ _______ _______ _____ _____    ______ ____
ROOT
ATOM     12  C   LIG    1       19.669  64.791  14.174  0.00  0.00    +0.141 A 
ATOM     13  C   LIG    1       18.574  65.664  14.708  0.00  0.00    +0.037 A 
ATOM     14  C   LIG    1       18.684  67.156  14.604  0.00  0.00    +0.003 A 
ATOM     15  C   LIG    1       19.893  67.775  13.964  0.00  0.00    +0.000 A 
ATOM     26  C   LIG    1       20.988  66.902  13.430  0.00  0.00    +0.003 A 
ATOM     27  C   LIG    1       20.877  65.409  13.535  0.00  0.00    +0.037 A 
ENDROOT
BRANCH  15  16
ATOM     16  C   LIG    1       20.003  69.267  13.859  0.00  0.00    +0.000 C 
ATOM     17  C   LIG    1       19.505  69.971  12.632  0.00  0.00    +0.000 C 
BRANCH  17  18
ATOM     18  C   LIG    1       18.895  69.183  11.511  0.00  0.00    +0.006 A 
ATOM     19  C   LIG    1       17.429  68.867  11.525  0.00  0.00    +0.042 A 
ATOM     20  C   LIG    1       16.821  68.079  10.402  0.00  0.00    +0.199 A 
ATOM     21  O   LIG    1       15.355  67.764  10.417  0.00  0.00    -0.286 OA
ATOM     22  C   LIG    1       17.679  67.608   9.266  0.00  0.00    +0.084 A 
ATOM     23  C   LIG    1       19.145  67.924   9.251  0.00  0.00    +0.199 A 
ATOM     24  O   LIG    1       20.002  67.453   8.115  0.00  0.00    -0.286 OA
ATOM     25  C   LIG    1       19.753  68.712  10.373  0.00  0.00    +0.042 A 
ENDBRANCH  17  18
ENDBRANCH  15  16
BRANCH  12  11
ATOM     11  O   LIG    1       19.558  63.298  14.280  0.00  0.00    -0.450 OA
BRANCH  11  10
ATOM      3  C   LIG    1       21.678  61.780  17.270  0.00  0.00    +0.185 C 
ATOM      4  C   LIG    1       20.588  61.232  18.142  0.00  0.00    +0.215 C 
ATOM      5  O   LIG    1       20.931  60.544  19.430  0.00  0.00    -0.218 OA
ATOM      6  C   LIG    1       19.153  61.373  17.727  0.00  0.00    +0.221 C 
ATOM      7  O   LIG    1       18.062  60.826  18.599  0.00  0.00    -0.217 OA
ATOM      8  C   LIG    1       18.811  62.062  16.439  0.00  0.00    +0.254 C 
ATOM      9  O   LIG    1       17.376  62.204  16.023  0.00  0.00    -0.213 OA
ATOM     10  C   LIG    1       19.901  62.609  15.567  0.00  0.00    +0.322 C 
ATOM     28  O   LIG    1       21.336  62.468  15.983  0.00  0.00    -0.316 OA
BRANCH   3   2
ATOM      1  O   LIG    1       23.803  60.311  17.560  0.00  0.00    -0.218 OA
ATOM      2  C   LIG    1       23.113  61.638  17.687  0.00  0.00    +0.214 C 
ENDBRANCH   3   2
ENDBRANCH  11  10
ENDBRANCH  12  11
TORSDOF 5
ENDMDL
MODEL 6
REMARK VINA RESULT:      -5.7     12.848     15.679
REMARK  Name = 
REMARK                            x       y       z     vdW  Elec       q    Type
REMARK                         _______ _______ _______ _____ _____    ______ ____
ROOT
ATOM     12  C   LIG    1        8.769  53.716  23.871  0.00  0.00    +0.141 A 
ATOM     13  C   LIG    1        8.824  55.044  23.177  0.00  0.00    +0.037 A 
ATOM     14  C   LIG    1        8.296  55.184  21.781  0.00  0.00    +0.003 A 
ATOM     15  C   LIG    1        7.711  53.994  21.077  0.00  0.00    +0.000 A 
ATOM     26  C   LIG    1        7.656  52.666  21.771  0.00  0.00    +0.003 A 
ATOM     27  C   LIG    1        8.185  52.527  23.169  0.00  0.00    +0.037 A 
ENDROOT
BRANCH  15  16
ATOM     16  C   LIG    1        7.183  54.134  19.681  0.00  0.00    +0.000 C 
ATOM     17  C   LIG    1        5.758  54.546  19.457  0.00  0.00    +0.000 C 
BRANCH  17  18
ATOM     18  C   LIG    1        4.863  54.819  20.628  0.00  0.00    +0.006 A 
ATOM     19  C   LIG    1        4.773  56.204  21.198  0.00  0.00    +0.042 A 
ATOM     20  C   LIG    1        3.876  56.476  22.370  0.00  0.00    +0.199 A 
ATOM     21  O   LIG    1        3.787  57.860  22.939  0.00  0.00    -0.286 OA
ATOM     22  C   LIG    1        3.070  55.363  22.971  0.00  0.00    +0.084 A 
ATOM     23  C   LIG    1        3.160  53.978  22.402  0.00  0.00    +0.199 A 
ATOM     24  O   LIG    1        2.354  52.867  23.004  0.00  0.00    -0.286 OA
ATOM     25  C   LIG    1        4.056  53.707  21.230  0.00  0.00    +0.042 A 
ENDBRANCH  17  18
ENDBRANCH  15  16
BRANCH  12  11
ATOM     11  O   LIG    1        9.298  53.577  25.268  0.00  0.00    -0.450 OA
BRANCH  11  10
ATOM      3  C   LIG    1       10.070  56.739  27.537  0.00  0.00    +0.185 C 
ATOM      4  C   LIG    1       11.506  56.995  27.188  0.00  0.00    +0.215 C 
ATOM      5  O   LIG    1       12.242  58.135  27.828  0.00  0.00    -0.218 OA
ATOM      6  C   LIG    1       12.206  56.111  26.199  0.00  0.00    +0.221 C 
ATOM      7  O   LIG    1       13.642  56.367  25.850  0.00  0.00    -0.217 OA
ATOM      8  C   LIG    1       11.470  54.972  25.559  0.00  0.00    +0.254 C 
ATOM      9  O   LIG    1       12.169  54.088  24.570  0.00  0.00    -0.213 OA
ATOM     10  C   LIG    1       10.034  54.716  25.908  0.00  0.00    +0.322 C 
ATOM     28  O   LIG    1        9.333  55.600  26.898  0.00  0.00    -0.316 OA
BRANCH   3   2
ATOM      1  O   LIG    1        8.122  58.355  28.128  0.00  0.00    -0.218 OA
ATOM      2  C   LIG    1        9.370  57.624  28.527  0.00  0.00    +0.214 C 
ENDBRANCH   3   2
ENDBRANCH  11  10
ENDBRANCH  12  11
TORSDOF 5
ENDMDL
MODEL 7
REMARK VINA RESULT:      -5.7     25.250     28.136
REMARK  Name = 
REMARK                            x       y       z     vdW  Elec       q    Type
REMARK                         _______ _______ _______ _____ _____    ______ ____
ROOT
ATOM     12  C   LIG    1       14.424  62.738 -13.425  0.00  0.00    +0.141 A 
ATOM     13  C   LIG    1       15.274  63.587 -14.323  0.00  0.00    +0.037 A 
ATOM     14  C   LIG    1       15.108  65.077 -14.324  0.00  0.00    +0.003 A 
ATOM     15  C   LIG    1       14.091  65.719 -13.427  0.00  0.00    +0.000 A 
ATOM     26  C   LIG    1       13.241  64.870 -12.529  0.00  0.00    +0.003 A 
ATOM     27  C   LIG    1       13.408  63.379 -12.528  0.00  0.00    +0.037 A 
ENDROOT
BRANCH  15  16
ATOM     16  C   LIG    1       13.925  67.210 -13.428  0.00  0.00    +0.000 C 
ATOM     17  C   LIG    1       14.850  68.067 -12.617  0.00  0.00    +0.000 C 
BRANCH  17  18
ATOM     18  C   LIG    1       15.941  67.435 -11.805  0.00  0.00    +0.006 A 
ATOM     19  C   LIG    1       15.660  66.960 -10.410  0.00  0.00    +0.042 A 
ATOM     20  C   LIG    1       16.752  66.327  -9.599  0.00  0.00    +0.199 A 
ATOM     21  O   LIG    1       16.470  65.852  -8.205  0.00  0.00    -0.286 OA
ATOM     22  C   LIG    1       18.125  66.171 -10.182  0.00  0.00    +0.084 A 
ATOM     23  C   LIG    1       18.407  66.645 -11.577  0.00  0.00    +0.199 A 
ATOM     24  O   LIG    1       19.779  66.488 -12.159  0.00  0.00    -0.286 OA
ATOM     25  C   LIG    1       17.315  67.278 -12.388  0.00  0.00    +0.042 A 
ENDBRANCH  17  18
ENDBRANCH  15  16
BRANCH  12  11
ATOM     11  O   LIG    1       14.591  61.247 -13.425  0.00  0.00    -0.450 OA
BRANCH  11  10
ATOM      3  C   LIG    1       16.667  60.225 -16.648  0.00  0.00    +0.185 C 
ATOM      4  C   LIG    1       15.816  59.118 -17.195  0.00  0.00    +0.215 C 
ATOM      5  O   LIG    1       16.224  58.409 -18.452  0.00  0.00    -0.218 OA
ATOM      6  C   LIG    1       14.556  58.720 -16.485  0.00  0.00    +0.221 C 
ATOM      7  O   LIG    1       13.705  57.613 -17.032  0.00  0.00    -0.217 OA
ATOM      8  C   LIG    1       14.148  59.430 -15.228  0.00  0.00    +0.254 C 
ATOM      9  O   LIG    1       12.888  59.032 -14.517  0.00  0.00    -0.213 OA
ATOM     10  C   LIG    1       14.999  60.537 -14.681  0.00  0.00    +0.322 C 
ATOM     28  O   LIG    1       16.260  60.935 -15.392  0.00  0.00    -0.316 OA
BRANCH   3   2
ATOM      1  O   LIG    1       18.952  61.464 -16.656  0.00  0.00    -0.218 OA
ATOM      2  C   LIG    1       17.927  60.623 -17.360  0.00  0.00    +0.214 C 
ENDBRANCH   3   2
ENDBRANCH  11  10
ENDBRANCH  12  11
TORSDOF 5
ENDMDL
MODEL 8
REMARK VINA RESULT:      -5.7     29.632     32.242
REMARK  Name = 
REMARK                            x       y       z     vdW  Elec       q    Type
REMARK                         _______ _______ _______ _____ _____    ______ ____
ROOT
ATOM     12  C   LIG    1        7.165  41.251 -16.237  0.00  0.00    +0.141 A 
ATOM     13  C   LIG    1        8.010  42.216 -17.014  0.00  0.00    +0.037 A 
ATOM     14  C   LIG    1        8.765  43.296 -16.299  0.00  0.00    +0.003 A 
ATOM     15  C   LIG    1        8.676  43.412 -14.805  0.00  0.00    +0.000 A 
ATOM     26  C   LIG    1        7.831  42.447 -14.028  0.00  0.00    +0.003 A 
ATOM     27  C   LIG    1        7.075  41.366 -14.744  0.00  0.00    +0.037 A 
ENDROOT
BRANCH  15  16
ATOM     16  C   LIG    1        9.431  44.492 -14.091  0.00  0.00    +0.000 C 
ATOM     17  C   LIG    1        8.729  45.754 -13.685  0.00  0.00    +0.000 C 
BRANCH  17  18
ATOM     18  C   LIG    1        7.273  45.936 -13.995  0.00  0.00    +0.006 A 
ATOM     19  C   LIG    1        6.240  45.629 -12.952  0.00  0.00    +0.042 A 
ATOM     20  C   LIG    1        4.784  45.811 -13.262  0.00  0.00    +0.199 A 
ATOM     21  O   LIG    1        3.751  45.504 -12.219  0.00  0.00    -0.286 OA
ATOM     22  C   LIG    1        4.361  46.301 -14.615  0.00  0.00    +0.084 A 
ATOM     23  C   LIG    1        5.393  46.609 -15.659  0.00  0.00    +0.199 A 
ATOM     24  O   LIG    1        4.970  47.098 -17.011  0.00  0.00    -0.286 OA
ATOM     25  C   LIG    1        6.850  46.426 -15.348  0.00  0.00    +0.042 A 
ENDBRANCH  17  18
ENDBRANCH  15  16
BRANCH  12  11
ATOM     11  O   LIG    1        6.409  40.170 -16.952  0.00  0.00    -0.450 OA
BRANCH  11  10
ATOM      3  C   LIG    1        7.438  36.430 -16.115  0.00  0.00    +0.185 C 
ATOM      4  C   LIG    1        8.200  36.061 -17.353  0.00  0.00    +0.215 C 
ATOM      5  O   LIG    1        8.796  34.691 -17.486  0.00  0.00    -0.218 OA
ATOM      6  C   LIG    1        8.364  37.062 -18.458  0.00  0.00    +0.221 C 
ATOM      7  O   LIG    1        9.126  36.693 -19.696  0.00  0.00    -0.217 OA
ATOM      8  C   LIG    1        7.767  38.431 -18.324  0.00  0.00    +0.254 C 
ATOM      9  O   LIG    1        7.932  39.433 -19.429  0.00  0.00    -0.213 OA
ATOM     10  C   LIG    1        7.006  38.800 -17.086  0.00  0.00    +0.322 C 
ATOM     28  O   LIG    1        6.841  37.799 -15.980  0.00  0.00    -0.316 OA
BRANCH   3   2
ATOM      1  O   LIG    1        7.718  35.768 -13.617  0.00  0.00    -0.218 OA
ATOM      2  C   LIG    1        7.274  35.428 -15.010  0.00  0.00    +0.214 C 
ENDBRANCH   3   2
ENDBRANCH  11  10
ENDBRANCH  12  11
TORSDOF 5
ENDMDL
MODEL 9
REMARK VINA RESULT:      -5.7      2.394      5.905
REMARK  Name = 
REMARK                            x       y       z     vdW  Elec       q    Type
REMARK                         _______ _______ _______ _____ _____    ______ ____
ROOT
ATOM     12  C   LIG    1        0.416  59.039  13.383  0.00  0.00    +0.141 A 
ATOM     13  C   LIG    1       -0.789  59.408  12.571  0.00  0.00    +0.037 A 
ATOM     14  C   LIG    1       -0.799  60.681  11.778  0.00  0.00    +0.003 A 
ATOM     15  C   LIG    1        0.397  61.586  11.797  0.00  0.00    +0.000 A 
ATOM     26  C   LIG    1        1.603  61.217  12.609  0.00  0.00    +0.003 A 
ATOM     27  C   LIG    1        1.613  59.944  13.403  0.00  0.00    +0.037 A 
ENDROOT
BRANCH  15  16
ATOM     16  C   LIG    1        0.387  62.859  11.004  0.00  0.00    +0.000 C 
ATOM     17  C   LIG    1        1.216  62.972   9.759  0.00  0.00    +0.000 C 
BRANCH  17  18
ATOM     18  C   LIG    1        2.055  61.814   9.307  0.00  0.00    +0.006 A 
ATOM     19  C   LIG    1        1.426  60.682   8.550  0.00  0.00    +0.042 A 
ATOM     20  C   LIG    1        2.267  59.524   8.098  0.00  0.00    +0.199 A 
ATOM     21  O   LIG    1        1.637  58.393   7.341  0.00  0.00    -0.286 OA
ATOM     22  C   LIG    1        3.734  59.498   8.405  0.00  0.00    +0.084 A 
ATOM     23  C   LIG    1        4.364  60.630   9.162  0.00  0.00    +0.199 A 
ATOM     24  O   LIG    1        5.831  60.603   9.468  0.00  0.00    -0.286 OA
ATOM     25  C   LIG    1        3.523  61.788   9.614  0.00  0.00    +0.042 A 
ENDBRANCH  17  18
ENDBRANCH  15  16
BRANCH  12  11
ATOM     11  O   LIG    1        0.426  57.766  14.177  0.00  0.00    -0.450 OA
BRANCH  11  10
ATOM      3  C   LIG    1       -0.403  54.300  12.431  0.00  0.00    +0.185 C 
ATOM      4  C   LIG    1        0.975  53.818  12.087  0.00  0.00    +0.215 C 
ATOM      5  O   LIG    1        1.157  52.503  11.390  0.00  0.00    -0.218 OA
ATOM      6  C   LIG    1        2.171  54.653  12.439  0.00  0.00    +0.221 C 
ATOM      7  O   LIG    1        3.549  54.171  12.095  0.00  0.00    -0.217 OA
ATOM      8  C   LIG    1        1.987  55.968  13.136  0.00  0.00    +0.254 C 
ATOM      9  O   LIG    1        3.183  56.804  13.489  0.00  0.00    -0.213 OA
ATOM     10  C   LIG    1        0.609  56.450  13.480  0.00  0.00    +0.322 C 
ATOM     28  O   LIG    1       -0.587  55.615  13.127  0.00  0.00    -0.316 OA
BRANCH   3   2
ATOM      1  O   LIG    1       -2.953  53.832  12.610  0.00  0.00    -0.218 OA
ATOM      2  C   LIG    1       -1.599  53.465  12.078  0.00  0.00    +0.214 C 
ENDBRANCH   3   2
ENDBRANCH  11  10
ENDBRANCH  12  11
TORSDOF 5
ENDMDL
MODEL 10
REMARK VINA RESULT:      -5.6     27.288     29.769
REMARK  Name = 
REMARK                            x       y       z     vdW  Elec       q    Type
REMARK                         _______ _______ _______ _____ _____    ______ ____
ROOT
ATOM     12  C   LIG    1        8.342  43.808 -14.878  0.00  0.00    +0.141 A 
ATOM     13  C   LIG    1        7.866  43.709 -13.459  0.00  0.00    +0.037 A 
ATOM     14  C   LIG    1        7.781  44.940 -12.608  0.00  0.00    +0.003 A 
ATOM     15  C   LIG    1        8.172  46.273 -13.176  0.00  0.00    +0.000 A 
ATOM     26  C   LIG    1        8.647  46.373 -14.594  0.00  0.00    +0.003 A 
ATOM     27  C   LIG    1        8.733  45.140 -15.446  0.00  0.00    +0.037 A 
ENDROOT
BRANCH  15  16
ATOM     16  C   LIG    1        8.086  47.505 -12.324  0.00  0.00    +0.000 C 
ATOM     17  C   LIG    1        6.748  48.101 -12.002  0.00  0.00    +0.000 C 
BRANCH  17  18
ATOM     18  C   LIG    1        5.496  47.466 -12.530  0.00  0.00    +0.006 A 
ATOM     19  C   LIG    1        5.054  47.736 -13.937  0.00  0.00    +0.042 A 
ATOM     20  C   LIG    1        3.801  47.101 -14.465  0.00  0.00    +0.199 A 
ATOM     21  O   LIG    1        3.359  47.371 -15.872  0.00  0.00    -0.286 OA
ATOM     22  C   LIG    1        2.992  46.195 -13.584  0.00  0.00    +0.084 A 
ATOM     23  C   LIG    1        3.434  45.924 -12.177  0.00  0.00    +0.199 A 
ATOM     24  O   LIG    1        2.625  45.019 -11.298  0.00  0.00    -0.286 OA
ATOM     25  C   LIG    1        4.686  46.560 -11.650  0.00  0.00    +0.042 A 
ENDBRANCH  17  18
ENDBRANCH  15  16
BRANCH  12  11
ATOM     11  O   LIG    1        8.427  42.576 -15.729  0.00  0.00    -0.450 OA
BRANCH  11  10
ATOM      3  C   LIG    1        6.394  39.194 -15.312  0.00  0.00    +0.185 C 
ATOM      4  C   LIG    1        5.030  39.625 -15.761  0.00  0.00    +0.215 C 
ATOM      5  O   LIG    1        3.898  38.641 -15.772  0.00  0.00    -0.218 OA
ATOM      6  C   LIG    1        4.798  41.041 -16.200  0.00  0.00    +0.221 C 
ATOM      7  O   LIG    1        3.434  41.472 -16.650  0.00  0.00    -0.217 OA
ATOM      8  C   LIG    1        5.931  42.023 -16.189  0.00  0.00    +0.254 C 
ATOM      9  O   LIG    1        5.700  43.440 -16.628  0.00  0.00    -0.213 OA
ATOM     10  C   LIG    1        7.295  41.592 -15.740  0.00  0.00    +0.322 C 
ATOM     28  O   LIG    1        7.527  40.176 -15.300  0.00  0.00    -0.316 OA
BRANCH   3   2
ATOM      1  O   LIG    1        7.188  36.775 -15.838  0.00  0.00    -0.218 OA
ATOM      2  C   LIG    1        6.626  37.777 -14.872  0.00  0.00    +0.214 C 
ENDBRANCH   3   2
ENDBRANCH  11  10
ENDBRANCH  12  11
TORSDOF 5
ENDMDL
